.subckt TG_BETA2 PPD TG FD SUB W_=2u L_=0.6u Ldiff=10um Vdep=1 Ctgfd=0.1f barrier=0.3
*20231227vs created LVS view
captgfd TG FD Cparasitic Ctgfd 
.ends