.subckt linear_combination inA inB out A=1 B=1

eout out gnd vol='V(inA)*A+V(inB)*B'

*20250606ba for use in double conversion re-analogization

.ends
