.subckt sum16 in<0> in<1> in<2> in<3> in<4> in<5> 
+ in<6> in<7> in<8> in<9> in<10> in<11> in<12> in<13> 
+ in<14> in<15> out 

eout out gnd vol='V(in<15>)+V(in<14>)+V(in<13>)+V(in<12>)+V(in<11>)+V(in<10>)+V(in<9>)+V(in<8>)+ 
+ V(in<7>)+V(in<6>)+V(in<5>)+V(in<4>)+V(in<3>)+V(in<2>)+V(in<1>)+V(in<0>)'

*20241021 bart

.ends



