* CDL Netlist generated by OpenROAD

*.BUSDELIMITER [

.SUBCKT adc_digital clk_comp clk_samp_n clk_samp_n_b clk_samp_p
+ clk_samp_p_b comp_out comp_out_n comp_out_p dac_astate_n[0]
+ dac_astate_n[10] dac_astate_n[11] dac_astate_n[12] dac_astate_n[13]
+ dac_astate_n[14] dac_astate_n[15] dac_astate_n[1] dac_astate_n[2]
+ dac_astate_n[3] dac_astate_n[4] dac_astate_n[5] dac_astate_n[6]
+ dac_astate_n[7] dac_astate_n[8] dac_astate_n[9] dac_astate_p[0]
+ dac_astate_p[10] dac_astate_p[11] dac_astate_p[12] dac_astate_p[13]
+ dac_astate_p[14] dac_astate_p[15] dac_astate_p[1] dac_astate_p[2]
+ dac_astate_p[3] dac_astate_p[4] dac_astate_p[5] dac_astate_p[6]
+ dac_astate_p[7] dac_astate_p[8] dac_astate_p[9] dac_bstate_n[0]
+ dac_bstate_n[10] dac_bstate_n[11] dac_bstate_n[12] dac_bstate_n[13]
+ dac_bstate_n[14] dac_bstate_n[15] dac_bstate_n[1] dac_bstate_n[2]
+ dac_bstate_n[3] dac_bstate_n[4] dac_bstate_n[5] dac_bstate_n[6]
+ dac_bstate_n[7] dac_bstate_n[8] dac_bstate_n[9] dac_bstate_p[0]
+ dac_bstate_p[10] dac_bstate_p[11] dac_bstate_p[12] dac_bstate_p[13]
+ dac_bstate_p[14] dac_bstate_p[15] dac_bstate_p[1] dac_bstate_p[2]
+ dac_bstate_p[3] dac_bstate_p[4] dac_bstate_p[5] dac_bstate_p[6]
+ dac_bstate_p[7] dac_bstate_p[8] dac_bstate_p[9] dac_diffcaps
+ dac_invert_n_diff dac_invert_n_main dac_invert_p_diff dac_invert_p_main
+ dac_mode dac_state_n_diff[0] dac_state_n_diff[10] dac_state_n_diff[11]
+ dac_state_n_diff[12] dac_state_n_diff[13] dac_state_n_diff[14]
+ dac_state_n_diff[15] dac_state_n_diff[1] dac_state_n_diff[2]
+ dac_state_n_diff[3] dac_state_n_diff[4] dac_state_n_diff[5]
+ dac_state_n_diff[6] dac_state_n_diff[7] dac_state_n_diff[8]
+ dac_state_n_diff[9] dac_state_n_main[0] dac_state_n_main[10]
+ dac_state_n_main[11] dac_state_n_main[12] dac_state_n_main[13]
+ dac_state_n_main[14] dac_state_n_main[15] dac_state_n_main[1]
+ dac_state_n_main[2] dac_state_n_main[3] dac_state_n_main[4]
+ dac_state_n_main[5] dac_state_n_main[6] dac_state_n_main[7]
+ dac_state_n_main[8] dac_state_n_main[9] dac_state_p_diff[0]
+ dac_state_p_diff[10] dac_state_p_diff[11] dac_state_p_diff[12]
+ dac_state_p_diff[13] dac_state_p_diff[14] dac_state_p_diff[15]
+ dac_state_p_diff[1] dac_state_p_diff[2] dac_state_p_diff[3]
+ dac_state_p_diff[4] dac_state_p_diff[5] dac_state_p_diff[6]
+ dac_state_p_diff[7] dac_state_p_diff[8] dac_state_p_diff[9]
+ dac_state_p_main[0] dac_state_p_main[10] dac_state_p_main[11]
+ dac_state_p_main[12] dac_state_p_main[13] dac_state_p_main[14]
+ dac_state_p_main[15] dac_state_p_main[1] dac_state_p_main[2]
+ dac_state_p_main[3] dac_state_p_main[4] dac_state_p_main[5]
+ dac_state_p_main[6] dac_state_p_main[7] dac_state_p_main[8]
+ dac_state_p_main[9] en_comp en_init en_samp_n en_samp_p en_update
+ seq_comp seq_init seq_samp seq_update vdd_d vss_d
Xinput47 dac_bstate_n[4] net47 vdd_d vss_d BUFFD2LVT
Xplace139 salogic_dual/dac_ff\[9\].dac_state_p_ff.D net139
+ vdd_d vss_d CKBD2LVT
X_03_ dac_diffcaps net71 vdd_d vss_d BUFFD0LVT
Xinput46 dac_bstate_n[3] net46 vdd_d vss_d BUFFD2LVT
X_05_ dac_diffcaps net72 vdd_d vss_d BUFFD0LVT
Xinput45 dac_bstate_n[2] net45 vdd_d vss_d BUFFD2LVT
Xplace148 clk_init net148 vdd_d vss_d CKBD2LVT
Xclkbuf_2_2__f_clk_update clknet_0_clk_update clknet_2_2__leaf_clk_update
+ vdd_d vss_d BUFFD12LVT
Xclkload0 clknet_2_1__leaf_clk_update _unconnected_0 vdd_d
+ vss_d INVD1LVT
Xclkload2 clknet_2_3__leaf_clk_update _unconnected_1 vdd_d
+ vss_d INVD0LVT
Xplace140 salogic_dual/dac_ff\[7\].dac_state_n_ff.D net140
+ vdd_d vss_d CKBD2LVT
Xplace142 salogic_dual/dac_ff\[5\].dac_state_n_ff.D net142
+ vdd_d vss_d CKBD2LVT
Xplace144 net105 net144 vdd_d vss_d CKBD2LVT
Xplace146 salogic_dual/_032_ net146 vdd_d vss_d CKBD2LVT
Xplace149 net148 net149 vdd_d vss_d CKBD2LVT
Xclkbuf_2_0__f_clk_update clknet_0_clk_update clknet_2_0__leaf_clk_update
+ vdd_d vss_d BUFFD12LVT
Xclkbuf_0_clk_update clk_update clknet_0_clk_update vdd_d
+ vss_d BUFFD12LVT
Xclkbuf_2_3__f_clk_update clknet_0_clk_update clknet_2_3__leaf_clk_update
+ vdd_d vss_d BUFFD12LVT
Xclkload1 clknet_2_2__leaf_clk_update _unconnected_2 vdd_d
+ vss_d INVD0LVT
Xplace141 salogic_dual/dac_ff\[6\].dac_state_n_ff.D net141
+ vdd_d vss_d CKBD2LVT
Xplace143 salogic_dual/dac_ff\[4\].dac_state_n_ff.D net143
+ vdd_d vss_d CKBD2LVT
Xplace145 salogic_dual/_041_ net145 vdd_d vss_d CKBD2LVT
Xplace147 salogic_dual/_032_ net147 vdd_d vss_d CKBD2LVT
Xplace150 net69 net150 vdd_d vss_d CKBD2LVT
Xclkbuf_2_1__f_clk_update clknet_0_clk_update clknet_2_1__leaf_clk_update
+ vdd_d vss_d BUFFD12LVT
Xclkgate/clkgate_comp.clkgate_cell _unconnected_3 en_comp
+ seq_comp clk_comp vdd_d vss_d CKLNQD1LVT
Xclkgate/clkgate_init.clkgate_cell _unconnected_4 en_init
+ seq_init clk_init vdd_d vss_d CKLNQD1LVT
Xclkgate/clkgate_samp_n.clkgate_cell _unconnected_5 en_samp_n
+ seq_samp clk_samp_n_raw vdd_d vss_d CKLNQD1LVT
Xclkgate/clkgate_samp_p.clkgate_cell _unconnected_6 en_samp_p
+ seq_samp clk_samp_p_raw vdd_d vss_d CKLNQD1LVT
Xclkgate/clkgate_update.clkgate_cell _unconnected_7 en_update
+ seq_update clk_update vdd_d vss_d CKLNQD1LVT
Xsalogic_dual/_174_ salogic_dual/dac_cycle\[1\] salogic_dual/_015_
+ vdd_d vss_d CKND0LVT
Xinput44 dac_bstate_n[1] net44 vdd_d vss_d BUFFD2LVT
Xsalogic_dual/_176_ salogic_dual/_015_ net149 salogic_dual/_000_
+ vdd_d vss_d NR2D0LVT
Xsalogic_dual/_177_ salogic_dual/dac_cycle\[11\] salogic_dual/_017_
+ vdd_d vss_d CKND0LVT
Xsalogic_dual/_178_ salogic_dual/_017_ net149 salogic_dual/_001_
+ vdd_d vss_d NR2D0LVT
Xsalogic_dual/_179_ salogic_dual/dac_cycle\[12\] salogic_dual/_018_
+ vdd_d vss_d CKND0LVT
Xsalogic_dual/_180_ salogic_dual/_018_ net149 salogic_dual/_002_
+ vdd_d vss_d NR2D0LVT
Xsalogic_dual/_181_ salogic_dual/dac_cycle\[13\] salogic_dual/_019_
+ vdd_d vss_d CKND0LVT
Xsalogic_dual/_182_ salogic_dual/_019_ net149 salogic_dual/_003_
+ vdd_d vss_d NR2D0LVT
Xsalogic_dual/_183_ salogic_dual/dac_cycle\[14\] salogic_dual/_020_
+ vdd_d vss_d CKND0LVT
Xsalogic_dual/_184_ salogic_dual/_020_ net148 salogic_dual/_004_
+ vdd_d vss_d NR2D0LVT
Xsalogic_dual/_185_ salogic_dual/dac_cycle\[15\] salogic_dual/_021_
+ vdd_d vss_d CKND0LVT
Xsalogic_dual/_186_ salogic_dual/_021_ net148 salogic_dual/_005_
+ vdd_d vss_d NR2D0LVT
Xsalogic_dual/_187_ salogic_dual/dac_cycle\[2\] salogic_dual/_022_
+ vdd_d vss_d CKND0LVT
Xsalogic_dual/_188_ salogic_dual/_022_ net149 salogic_dual/_006_
+ vdd_d vss_d NR2D0LVT
Xsalogic_dual/_189_ salogic_dual/dac_cycle\[3\] salogic_dual/_023_
+ vdd_d vss_d CKND0LVT
Xsalogic_dual/_190_ salogic_dual/_023_ net149 salogic_dual/_007_
+ vdd_d vss_d NR2D0LVT
Xsalogic_dual/_191_ salogic_dual/dac_cycle\[4\] salogic_dual/_024_
+ vdd_d vss_d CKND0LVT
Xsalogic_dual/_192_ salogic_dual/_024_ net148 salogic_dual/_008_
+ vdd_d vss_d NR2D0LVT
Xsalogic_dual/_193_ salogic_dual/dac_cycle\[5\] salogic_dual/_025_
+ vdd_d vss_d CKND0LVT
Xsalogic_dual/_194_ salogic_dual/_025_ net148 salogic_dual/_009_
+ vdd_d vss_d NR2D0LVT
Xsalogic_dual/_195_ salogic_dual/dac_cycle\[6\] salogic_dual/_026_
+ vdd_d vss_d CKND0LVT
Xsalogic_dual/_196_ salogic_dual/_026_ net148 salogic_dual/_010_
+ vdd_d vss_d NR2D0LVT
Xsalogic_dual/_197_ salogic_dual/dac_cycle\[7\] salogic_dual/_027_
+ vdd_d vss_d CKND0LVT
Xsalogic_dual/_198_ salogic_dual/_027_ net148 salogic_dual/_011_
+ vdd_d vss_d NR2D0LVT
Xsalogic_dual/_199_ salogic_dual/dac_cycle\[8\] salogic_dual/_028_
+ vdd_d vss_d CKND0LVT
Xsalogic_dual/_200_ salogic_dual/_028_ net149 salogic_dual/_012_
+ vdd_d vss_d NR2D0LVT
Xsalogic_dual/_201_ salogic_dual/dac_cycle\[9\] salogic_dual/_029_
+ vdd_d vss_d CKND0LVT
Xsalogic_dual/_202_ salogic_dual/_029_ net149 salogic_dual/_013_
+ vdd_d vss_d NR2D0LVT
Xsalogic_dual/_203_ salogic_dual/dac_cycle\[10\] salogic_dual/_030_
+ vdd_d vss_d CKND0LVT
Xsalogic_dual/_204_ salogic_dual/_030_ net149 salogic_dual/_014_
+ vdd_d vss_d NR2D0LVT
Xsalogic_dual/_205_ net150 net4 salogic_dual/_031_ vdd_d vss_d
+ CKND2D0LVT
Xsalogic_dual/_206_ net148 salogic_dual/_032_ vdd_d vss_d
+ INVD2LVT
Xsalogic_dual/_207_ salogic_dual/_031_ salogic_dual/_032_
+ salogic_dual/_033_ vdd_d vss_d ND2D2LVT
Xinput43 dac_bstate_n[15] net43 vdd_d vss_d BUFFD2LVT
Xsalogic_dual/_209_ net37 salogic_dual/_035_ vdd_d vss_d CKND0LVT
Xinput42 dac_bstate_n[14] net42 vdd_d vss_d BUFFD2LVT
Xsalogic_dual/_211_ salogic_dual/_035_ net150 salogic_dual/_037_
+ vdd_d vss_d NR2D0LVT
Xsalogic_dual/_212_ salogic_dual/_033_ salogic_dual/_037_
+ salogic_dual/_038_ vdd_d vss_d NR2D1LVT
Xinput41 dac_bstate_n[13] net41 vdd_d vss_d BUFFD2LVT
Xsalogic_dual/_214_ net146 net5 salogic_dual/_040_ vdd_d vss_d
+ NR2D0LVT
Xsalogic_dual/_215_ salogic_dual/_038_ salogic_dual/_040_
+ salogic_dual/dac_ff\[0\].dac_state_n_ff.D vdd_d vss_d NR2D1LVT
Xsalogic_dual/_216_ net150 net149 salogic_dual/_041_ vdd_d
+ vss_d INR2D2LVT
Xinput40 dac_bstate_n[12] net40 vdd_d vss_d BUFFD2LVT
Xsalogic_dual/_218_ salogic_dual/dac_cycle\[0\] salogic_dual/_041_
+ salogic_dual/dac_ff\[0\].dac_state_n_ff.E vdd_d vss_d IND2D0LVT
Xsalogic_dual/_219_ net3 net69 salogic_dual/_043_ vdd_d vss_d
+ CKND2D0LVT
Xsalogic_dual/_220_ salogic_dual/_043_ net147 salogic_dual/_044_
+ vdd_d vss_d ND2D2LVT
Xinput39 dac_bstate_n[11] net39 vdd_d vss_d BUFFD2LVT
Xsalogic_dual/_222_ net53 salogic_dual/_046_ vdd_d vss_d CKND0LVT
Xsalogic_dual/_223_ salogic_dual/_046_ net69 salogic_dual/_047_
+ vdd_d vss_d NR2D0LVT
Xsalogic_dual/_224_ salogic_dual/_044_ salogic_dual/_047_
+ salogic_dual/_048_ vdd_d vss_d NR2D1LVT
Xsalogic_dual/_225_ net147 net21 salogic_dual/_049_ vdd_d
+ vss_d NR2D0LVT
Xsalogic_dual/_226_ salogic_dual/_048_ salogic_dual/_049_
+ salogic_dual/dac_ff\[0\].dac_state_p_ff.D vdd_d vss_d NR2D1LVT
Xsalogic_dual/_227_ net38 salogic_dual/_050_ vdd_d vss_d CKND0LVT
Xsalogic_dual/_228_ salogic_dual/_050_ net150 salogic_dual/_051_
+ vdd_d vss_d NR2D0LVT
Xsalogic_dual/_229_ salogic_dual/_033_ salogic_dual/_051_
+ salogic_dual/_052_ vdd_d vss_d NR2D1LVT
Xsalogic_dual/_230_ net146 net6 salogic_dual/_053_ vdd_d vss_d
+ NR2D0LVT
Xsalogic_dual/_231_ salogic_dual/_052_ salogic_dual/_053_
+ salogic_dual/dac_ff\[10\].dac_state_n_ff.D vdd_d vss_d NR2D1LVT
Xsalogic_dual/_232_ net145 salogic_dual/_030_ salogic_dual/dac_ff\[10\].dac_state_n_ff.E
+ vdd_d vss_d CKND2D0LVT
Xsalogic_dual/_233_ net54 salogic_dual/_054_ vdd_d vss_d CKND0LVT
Xsalogic_dual/_234_ salogic_dual/_054_ net69 salogic_dual/_055_
+ vdd_d vss_d NR2D0LVT
Xsalogic_dual/_235_ salogic_dual/_044_ salogic_dual/_055_
+ salogic_dual/_056_ vdd_d vss_d NR2D1LVT
Xsalogic_dual/_236_ net147 net22 salogic_dual/_057_ vdd_d
+ vss_d NR2D0LVT
Xsalogic_dual/_237_ salogic_dual/_056_ salogic_dual/_057_
+ salogic_dual/dac_ff\[10\].dac_state_p_ff.D vdd_d vss_d NR2D1LVT
Xsalogic_dual/_238_ net39 salogic_dual/_058_ vdd_d vss_d CKND0LVT
Xsalogic_dual/_239_ salogic_dual/_058_ net150 salogic_dual/_059_
+ vdd_d vss_d NR2D0LVT
Xsalogic_dual/_240_ salogic_dual/_033_ salogic_dual/_059_
+ salogic_dual/_060_ vdd_d vss_d NR2D1LVT
Xsalogic_dual/_241_ net146 net7 salogic_dual/_061_ vdd_d vss_d
+ NR2D0LVT
Xsalogic_dual/_242_ salogic_dual/_060_ salogic_dual/_061_
+ salogic_dual/dac_ff\[11\].dac_state_n_ff.D vdd_d vss_d NR2D1LVT
Xsalogic_dual/_243_ net145 salogic_dual/_017_ salogic_dual/dac_ff\[11\].dac_state_n_ff.E
+ vdd_d vss_d CKND2D0LVT
Xsalogic_dual/_244_ net55 salogic_dual/_062_ vdd_d vss_d CKND0LVT
Xsalogic_dual/_245_ salogic_dual/_062_ net69 salogic_dual/_063_
+ vdd_d vss_d NR2D0LVT
Xsalogic_dual/_246_ salogic_dual/_044_ salogic_dual/_063_
+ salogic_dual/_064_ vdd_d vss_d NR2D1LVT
Xsalogic_dual/_247_ net147 net23 salogic_dual/_065_ vdd_d
+ vss_d NR2D0LVT
Xsalogic_dual/_248_ salogic_dual/_064_ salogic_dual/_065_
+ salogic_dual/dac_ff\[11\].dac_state_p_ff.D vdd_d vss_d NR2D1LVT
Xsalogic_dual/_249_ net40 salogic_dual/_066_ vdd_d vss_d CKND0LVT
Xsalogic_dual/_250_ salogic_dual/_066_ net150 salogic_dual/_067_
+ vdd_d vss_d NR2D0LVT
Xsalogic_dual/_251_ salogic_dual/_033_ salogic_dual/_067_
+ salogic_dual/_068_ vdd_d vss_d NR2D1LVT
Xsalogic_dual/_252_ net146 net8 salogic_dual/_069_ vdd_d vss_d
+ NR2D0LVT
Xsalogic_dual/_253_ salogic_dual/_068_ salogic_dual/_069_
+ salogic_dual/dac_ff\[12\].dac_state_n_ff.D vdd_d vss_d NR2D1LVT
Xsalogic_dual/_254_ net145 salogic_dual/_018_ salogic_dual/dac_ff\[12\].dac_state_n_ff.E
+ vdd_d vss_d CKND2D0LVT
Xsalogic_dual/_255_ net56 salogic_dual/_070_ vdd_d vss_d CKND0LVT
Xsalogic_dual/_256_ salogic_dual/_070_ net69 salogic_dual/_071_
+ vdd_d vss_d NR2D0LVT
Xsalogic_dual/_257_ salogic_dual/_044_ salogic_dual/_071_
+ salogic_dual/_072_ vdd_d vss_d NR2D1LVT
Xsalogic_dual/_258_ net147 net24 salogic_dual/_073_ vdd_d
+ vss_d NR2D0LVT
Xsalogic_dual/_259_ salogic_dual/_072_ salogic_dual/_073_
+ salogic_dual/dac_ff\[12\].dac_state_p_ff.D vdd_d vss_d NR2D1LVT
Xsalogic_dual/_260_ net41 salogic_dual/_074_ vdd_d vss_d CKND0LVT
Xsalogic_dual/_261_ salogic_dual/_074_ net150 salogic_dual/_075_
+ vdd_d vss_d NR2D0LVT
Xsalogic_dual/_262_ salogic_dual/_033_ salogic_dual/_075_
+ salogic_dual/_076_ vdd_d vss_d NR2D1LVT
Xsalogic_dual/_263_ net146 net9 salogic_dual/_077_ vdd_d vss_d
+ NR2D0LVT
Xsalogic_dual/_264_ salogic_dual/_076_ salogic_dual/_077_
+ salogic_dual/dac_ff\[13\].dac_state_n_ff.D vdd_d vss_d NR2D1LVT
Xsalogic_dual/_265_ net145 salogic_dual/_019_ salogic_dual/dac_ff\[13\].dac_state_n_ff.E
+ vdd_d vss_d CKND2D0LVT
Xsalogic_dual/_266_ net57 salogic_dual/_078_ vdd_d vss_d CKND0LVT
Xsalogic_dual/_267_ salogic_dual/_078_ net69 salogic_dual/_079_
+ vdd_d vss_d NR2D0LVT
Xsalogic_dual/_268_ salogic_dual/_044_ salogic_dual/_079_
+ salogic_dual/_080_ vdd_d vss_d NR2D1LVT
Xsalogic_dual/_269_ net147 net25 salogic_dual/_081_ vdd_d
+ vss_d NR2D0LVT
Xsalogic_dual/_270_ salogic_dual/_080_ salogic_dual/_081_
+ salogic_dual/dac_ff\[13\].dac_state_p_ff.D vdd_d vss_d NR2D1LVT
Xsalogic_dual/_271_ net42 salogic_dual/_082_ vdd_d vss_d CKND0LVT
Xinput38 dac_bstate_n[10] net38 vdd_d vss_d BUFFD2LVT
Xsalogic_dual/_273_ salogic_dual/_082_ net150 salogic_dual/_084_
+ vdd_d vss_d NR2D0LVT
Xsalogic_dual/_274_ salogic_dual/_033_ salogic_dual/_084_
+ salogic_dual/_085_ vdd_d vss_d NR2D1LVT
Xinput37 dac_bstate_n[0] net37 vdd_d vss_d BUFFD2LVT
Xsalogic_dual/_276_ net146 net10 salogic_dual/_087_ vdd_d
+ vss_d NR2XD0LVT
Xsalogic_dual/_277_ salogic_dual/_085_ salogic_dual/_087_
+ salogic_dual/dac_ff\[14\].dac_state_n_ff.D vdd_d vss_d NR2D1LVT
Xsalogic_dual/_278_ net145 salogic_dual/_020_ salogic_dual/dac_ff\[14\].dac_state_n_ff.E
+ vdd_d vss_d CKND2D0LVT
Xsalogic_dual/_279_ net58 salogic_dual/_088_ vdd_d vss_d CKND0LVT
Xsalogic_dual/_280_ salogic_dual/_088_ net69 salogic_dual/_089_
+ vdd_d vss_d NR2D0LVT
Xsalogic_dual/_281_ salogic_dual/_044_ salogic_dual/_089_
+ salogic_dual/_090_ vdd_d vss_d NR2D1LVT
Xsalogic_dual/_282_ net147 net26 salogic_dual/_091_ vdd_d
+ vss_d NR2XD0LVT
Xsalogic_dual/_283_ salogic_dual/_090_ salogic_dual/_091_
+ salogic_dual/dac_ff\[14\].dac_state_p_ff.D vdd_d vss_d NR2D1LVT
Xsalogic_dual/_284_ net43 salogic_dual/_092_ vdd_d vss_d CKND0LVT
Xsalogic_dual/_285_ salogic_dual/_092_ net150 salogic_dual/_093_
+ vdd_d vss_d NR2D0LVT
Xsalogic_dual/_286_ salogic_dual/_033_ salogic_dual/_093_
+ salogic_dual/_094_ vdd_d vss_d NR2D1LVT
Xsalogic_dual/_287_ net146 net11 salogic_dual/_095_ vdd_d
+ vss_d NR2XD0LVT
Xsalogic_dual/_288_ salogic_dual/_094_ salogic_dual/_095_
+ salogic_dual/dac_ff\[15\].dac_state_n_ff.D vdd_d vss_d NR2D1LVT
Xsalogic_dual/_289_ net145 salogic_dual/_021_ salogic_dual/dac_ff\[15\].dac_state_n_ff.E
+ vdd_d vss_d CKND2D0LVT
Xsalogic_dual/_290_ net59 salogic_dual/_096_ vdd_d vss_d CKND0LVT
Xsalogic_dual/_291_ salogic_dual/_096_ net69 salogic_dual/_097_
+ vdd_d vss_d NR2D0LVT
Xsalogic_dual/_292_ salogic_dual/_044_ salogic_dual/_097_
+ salogic_dual/_098_ vdd_d vss_d NR2D1LVT
Xsalogic_dual/_293_ net147 net27 salogic_dual/_099_ vdd_d
+ vss_d NR2XD0LVT
Xsalogic_dual/_294_ salogic_dual/_098_ salogic_dual/_099_
+ salogic_dual/dac_ff\[15\].dac_state_p_ff.D vdd_d vss_d NR2D1LVT
Xsalogic_dual/_295_ net44 salogic_dual/_100_ vdd_d vss_d CKND0LVT
Xsalogic_dual/_296_ salogic_dual/_100_ net150 salogic_dual/_101_
+ vdd_d vss_d NR2D0LVT
Xsalogic_dual/_297_ salogic_dual/_033_ salogic_dual/_101_
+ salogic_dual/_102_ vdd_d vss_d NR2D1LVT
Xsalogic_dual/_298_ net146 net12 salogic_dual/_103_ vdd_d
+ vss_d NR2XD0LVT
Xsalogic_dual/_299_ salogic_dual/_102_ salogic_dual/_103_
+ salogic_dual/dac_ff\[1\].dac_state_n_ff.D vdd_d vss_d NR2D1LVT
Xsalogic_dual/_300_ salogic_dual/_041_ salogic_dual/_015_
+ salogic_dual/dac_ff\[1\].dac_state_n_ff.E vdd_d vss_d CKND2D0LVT
Xsalogic_dual/_301_ net60 salogic_dual/_104_ vdd_d vss_d CKND0LVT
Xsalogic_dual/_302_ salogic_dual/_104_ net69 salogic_dual/_105_
+ vdd_d vss_d NR2D0LVT
Xsalogic_dual/_303_ salogic_dual/_044_ salogic_dual/_105_
+ salogic_dual/_106_ vdd_d vss_d NR2D1LVT
Xsalogic_dual/_304_ net147 net28 salogic_dual/_107_ vdd_d
+ vss_d NR2XD0LVT
Xsalogic_dual/_305_ salogic_dual/_106_ salogic_dual/_107_
+ salogic_dual/dac_ff\[1\].dac_state_p_ff.D vdd_d vss_d NR2D1LVT
Xsalogic_dual/_306_ net45 salogic_dual/_108_ vdd_d vss_d CKND0LVT
Xsalogic_dual/_307_ salogic_dual/_108_ net150 salogic_dual/_109_
+ vdd_d vss_d NR2D0LVT
Xsalogic_dual/_308_ salogic_dual/_033_ salogic_dual/_109_
+ salogic_dual/_110_ vdd_d vss_d NR2D1LVT
Xsalogic_dual/_309_ net146 net13 salogic_dual/_111_ vdd_d
+ vss_d NR2XD0LVT
Xsalogic_dual/_310_ salogic_dual/_110_ salogic_dual/_111_
+ salogic_dual/dac_ff\[2\].dac_state_n_ff.D vdd_d vss_d NR2D1LVT
Xsalogic_dual/_311_ salogic_dual/_041_ salogic_dual/_022_
+ salogic_dual/dac_ff\[2\].dac_state_n_ff.E vdd_d vss_d CKND2D0LVT
Xsalogic_dual/_312_ net61 salogic_dual/_112_ vdd_d vss_d CKND0LVT
Xsalogic_dual/_313_ salogic_dual/_112_ net69 salogic_dual/_113_
+ vdd_d vss_d NR2D0LVT
Xsalogic_dual/_314_ salogic_dual/_044_ salogic_dual/_113_
+ salogic_dual/_114_ vdd_d vss_d NR2D1LVT
Xsalogic_dual/_315_ net147 net29 salogic_dual/_115_ vdd_d
+ vss_d NR2XD0LVT
Xsalogic_dual/_316_ salogic_dual/_114_ salogic_dual/_115_
+ salogic_dual/dac_ff\[2\].dac_state_p_ff.D vdd_d vss_d NR2D1LVT
Xsalogic_dual/_317_ net46 salogic_dual/_116_ vdd_d vss_d CKND0LVT
Xsalogic_dual/_318_ salogic_dual/_116_ net150 salogic_dual/_117_
+ vdd_d vss_d NR2D0LVT
Xsalogic_dual/_319_ salogic_dual/_033_ salogic_dual/_117_
+ salogic_dual/_118_ vdd_d vss_d NR2D1LVT
Xsalogic_dual/_320_ net146 net14 salogic_dual/_119_ vdd_d
+ vss_d NR2XD0LVT
Xsalogic_dual/_321_ salogic_dual/_118_ salogic_dual/_119_
+ salogic_dual/dac_ff\[3\].dac_state_n_ff.D vdd_d vss_d NR2D1LVT
Xsalogic_dual/_322_ salogic_dual/_041_ salogic_dual/_023_
+ salogic_dual/dac_ff\[3\].dac_state_n_ff.E vdd_d vss_d CKND2D0LVT
Xsalogic_dual/_323_ net62 salogic_dual/_120_ vdd_d vss_d CKND0LVT
Xsalogic_dual/_324_ salogic_dual/_120_ net69 salogic_dual/_121_
+ vdd_d vss_d NR2D0LVT
Xsalogic_dual/_325_ salogic_dual/_044_ salogic_dual/_121_
+ salogic_dual/_122_ vdd_d vss_d NR2D1LVT
Xsalogic_dual/_326_ net147 net30 salogic_dual/_123_ vdd_d
+ vss_d NR2XD0LVT
Xsalogic_dual/_327_ salogic_dual/_122_ salogic_dual/_123_
+ salogic_dual/dac_ff\[3\].dac_state_p_ff.D vdd_d vss_d NR2D1LVT
Xsalogic_dual/_328_ net47 salogic_dual/_124_ vdd_d vss_d CKND0LVT
Xinput36 dac_astate_p[9] net36 vdd_d vss_d BUFFD2LVT
Xsalogic_dual/_330_ salogic_dual/_124_ net150 salogic_dual/_126_
+ vdd_d vss_d NR2D0LVT
Xsalogic_dual/_331_ salogic_dual/_033_ salogic_dual/_126_
+ salogic_dual/_127_ vdd_d vss_d NR2D0LVT
Xinput35 dac_astate_p[8] net35 vdd_d vss_d BUFFD2LVT
Xsalogic_dual/_333_ net146 net15 salogic_dual/_129_ vdd_d
+ vss_d NR2D0LVT
Xsalogic_dual/_334_ salogic_dual/_127_ salogic_dual/_129_
+ salogic_dual/dac_ff\[4\].dac_state_n_ff.D vdd_d vss_d NR2D0LVT
Xsalogic_dual/_335_ salogic_dual/_041_ salogic_dual/_024_
+ salogic_dual/dac_ff\[4\].dac_state_n_ff.E vdd_d vss_d CKND2D0LVT
Xsalogic_dual/_336_ net63 salogic_dual/_130_ vdd_d vss_d CKND0LVT
Xsalogic_dual/_337_ salogic_dual/_130_ net69 salogic_dual/_131_
+ vdd_d vss_d NR2D0LVT
Xsalogic_dual/_338_ salogic_dual/_044_ salogic_dual/_131_
+ salogic_dual/_132_ vdd_d vss_d NR2D0LVT
Xsalogic_dual/_339_ net147 net31 salogic_dual/_133_ vdd_d
+ vss_d NR2D0LVT
Xsalogic_dual/_340_ salogic_dual/_132_ salogic_dual/_133_
+ salogic_dual/dac_ff\[4\].dac_state_p_ff.D vdd_d vss_d NR2D0LVT
Xsalogic_dual/_341_ net48 salogic_dual/_134_ vdd_d vss_d CKND0LVT
Xsalogic_dual/_342_ salogic_dual/_134_ net150 salogic_dual/_135_
+ vdd_d vss_d NR2D0LVT
Xsalogic_dual/_343_ salogic_dual/_033_ salogic_dual/_135_
+ salogic_dual/_136_ vdd_d vss_d NR2D0LVT
Xsalogic_dual/_344_ net146 net16 salogic_dual/_137_ vdd_d
+ vss_d NR2D0LVT
Xsalogic_dual/_345_ salogic_dual/_136_ salogic_dual/_137_
+ salogic_dual/dac_ff\[5\].dac_state_n_ff.D vdd_d vss_d NR2D0LVT
Xsalogic_dual/_346_ net145 salogic_dual/_025_ salogic_dual/dac_ff\[5\].dac_state_n_ff.E
+ vdd_d vss_d CKND2D0LVT
Xsalogic_dual/_347_ net64 salogic_dual/_138_ vdd_d vss_d CKND0LVT
Xsalogic_dual/_348_ salogic_dual/_138_ net69 salogic_dual/_139_
+ vdd_d vss_d NR2D0LVT
Xsalogic_dual/_349_ salogic_dual/_044_ salogic_dual/_139_
+ salogic_dual/_140_ vdd_d vss_d NR2D0LVT
Xsalogic_dual/_350_ net147 net32 salogic_dual/_141_ vdd_d
+ vss_d NR2D0LVT
Xsalogic_dual/_351_ salogic_dual/_140_ salogic_dual/_141_
+ salogic_dual/dac_ff\[5\].dac_state_p_ff.D vdd_d vss_d NR2D0LVT
Xsalogic_dual/_352_ net49 salogic_dual/_142_ vdd_d vss_d CKND0LVT
Xsalogic_dual/_353_ salogic_dual/_142_ net150 salogic_dual/_143_
+ vdd_d vss_d NR2D0LVT
Xsalogic_dual/_354_ salogic_dual/_033_ salogic_dual/_143_
+ salogic_dual/_144_ vdd_d vss_d NR2D0LVT
Xsalogic_dual/_355_ net146 net17 salogic_dual/_145_ vdd_d
+ vss_d NR2D0LVT
Xsalogic_dual/_356_ salogic_dual/_144_ salogic_dual/_145_
+ salogic_dual/dac_ff\[6\].dac_state_n_ff.D vdd_d vss_d NR2D0LVT
Xsalogic_dual/_357_ net145 salogic_dual/_026_ salogic_dual/dac_ff\[6\].dac_state_n_ff.E
+ vdd_d vss_d CKND2D0LVT
Xsalogic_dual/_358_ net65 salogic_dual/_146_ vdd_d vss_d CKND0LVT
Xsalogic_dual/_359_ salogic_dual/_146_ net69 salogic_dual/_147_
+ vdd_d vss_d NR2D0LVT
Xsalogic_dual/_360_ salogic_dual/_044_ salogic_dual/_147_
+ salogic_dual/_148_ vdd_d vss_d NR2D0LVT
Xsalogic_dual/_361_ net147 net33 salogic_dual/_149_ vdd_d
+ vss_d NR2D0LVT
Xsalogic_dual/_362_ salogic_dual/_148_ salogic_dual/_149_
+ salogic_dual/dac_ff\[6\].dac_state_p_ff.D vdd_d vss_d NR2D0LVT
Xsalogic_dual/_363_ net50 salogic_dual/_150_ vdd_d vss_d CKND0LVT
Xsalogic_dual/_364_ salogic_dual/_150_ net150 salogic_dual/_151_
+ vdd_d vss_d NR2D0LVT
Xsalogic_dual/_365_ salogic_dual/_033_ salogic_dual/_151_
+ salogic_dual/_152_ vdd_d vss_d NR2D0LVT
Xsalogic_dual/_366_ net146 net18 salogic_dual/_153_ vdd_d
+ vss_d NR2D0LVT
Xsalogic_dual/_367_ salogic_dual/_152_ salogic_dual/_153_
+ salogic_dual/dac_ff\[7\].dac_state_n_ff.D vdd_d vss_d NR2D0LVT
Xsalogic_dual/_368_ net145 salogic_dual/_027_ salogic_dual/dac_ff\[7\].dac_state_n_ff.E
+ vdd_d vss_d CKND2D0LVT
Xsalogic_dual/_369_ net66 salogic_dual/_154_ vdd_d vss_d CKND0LVT
Xsalogic_dual/_370_ salogic_dual/_154_ net69 salogic_dual/_155_
+ vdd_d vss_d NR2D0LVT
Xsalogic_dual/_371_ salogic_dual/_044_ salogic_dual/_155_
+ salogic_dual/_156_ vdd_d vss_d NR2D0LVT
Xsalogic_dual/_372_ net147 net34 salogic_dual/_157_ vdd_d
+ vss_d NR2D0LVT
Xsalogic_dual/_373_ salogic_dual/_156_ salogic_dual/_157_
+ salogic_dual/dac_ff\[7\].dac_state_p_ff.D vdd_d vss_d NR2D0LVT
Xsalogic_dual/_374_ net51 salogic_dual/_158_ vdd_d vss_d CKND0LVT
Xsalogic_dual/_375_ salogic_dual/_158_ net150 salogic_dual/_159_
+ vdd_d vss_d NR2D0LVT
Xsalogic_dual/_376_ salogic_dual/_033_ salogic_dual/_159_
+ salogic_dual/_160_ vdd_d vss_d NR2D0LVT
Xsalogic_dual/_377_ net146 net19 salogic_dual/_161_ vdd_d
+ vss_d NR2D0LVT
Xsalogic_dual/_378_ salogic_dual/_160_ salogic_dual/_161_
+ salogic_dual/dac_ff\[8\].dac_state_n_ff.D vdd_d vss_d NR2D0LVT
Xsalogic_dual/_379_ net145 salogic_dual/_028_ salogic_dual/dac_ff\[8\].dac_state_n_ff.E
+ vdd_d vss_d CKND2D0LVT
Xsalogic_dual/_380_ net67 salogic_dual/_162_ vdd_d vss_d CKND0LVT
Xsalogic_dual/_381_ salogic_dual/_162_ net69 salogic_dual/_163_
+ vdd_d vss_d NR2D0LVT
Xsalogic_dual/_382_ salogic_dual/_044_ salogic_dual/_163_
+ salogic_dual/_164_ vdd_d vss_d NR2D0LVT
Xsalogic_dual/_383_ net147 net35 salogic_dual/_165_ vdd_d
+ vss_d NR2D0LVT
Xsalogic_dual/_384_ salogic_dual/_164_ salogic_dual/_165_
+ salogic_dual/dac_ff\[8\].dac_state_p_ff.D vdd_d vss_d NR2D0LVT
Xsalogic_dual/_385_ net52 salogic_dual/_166_ vdd_d vss_d CKND0LVT
Xsalogic_dual/_386_ salogic_dual/_166_ net150 salogic_dual/_167_
+ vdd_d vss_d NR2D0LVT
Xsalogic_dual/_387_ salogic_dual/_033_ salogic_dual/_167_
+ salogic_dual/_168_ vdd_d vss_d NR2D0LVT
Xsalogic_dual/_388_ net146 net20 salogic_dual/_169_ vdd_d
+ vss_d NR2D0LVT
Xsalogic_dual/_389_ salogic_dual/_168_ salogic_dual/_169_
+ salogic_dual/dac_ff\[9\].dac_state_n_ff.D vdd_d vss_d NR2D0LVT
Xsalogic_dual/_390_ net145 salogic_dual/_029_ salogic_dual/dac_ff\[9\].dac_state_n_ff.E
+ vdd_d vss_d CKND2D0LVT
Xsalogic_dual/_391_ net68 salogic_dual/_170_ vdd_d vss_d CKND0LVT
Xsalogic_dual/_392_ salogic_dual/_170_ net69 salogic_dual/_171_
+ vdd_d vss_d NR2D0LVT
Xsalogic_dual/_393_ salogic_dual/_044_ salogic_dual/_171_
+ salogic_dual/_172_ vdd_d vss_d NR2D0LVT
Xsalogic_dual/_394_ net147 net36 salogic_dual/_173_ vdd_d
+ vss_d NR2D0LVT
Xsalogic_dual/_395_ salogic_dual/_172_ salogic_dual/_173_
+ salogic_dual/dac_ff\[9\].dac_state_p_ff.D vdd_d vss_d NR2D0LVT
Xinput34 dac_astate_p[7] net34 vdd_d vss_d BUFFD2LVT
Xinput33 dac_astate_p[6] net33 vdd_d vss_d BUFFD2LVT
Xinput32 dac_astate_p[5] net32 vdd_d vss_d BUFFD2LVT
Xinput31 dac_astate_p[4] net31 vdd_d vss_d BUFFD2LVT
Xinput30 dac_astate_p[3] net30 vdd_d vss_d BUFFD2LVT
Xinput29 dac_astate_p[2] net29 vdd_d vss_d BUFFD2LVT
Xinput28 dac_astate_p[1] net28 vdd_d vss_d BUFFD2LVT
Xinput27 dac_astate_p[15] net27 vdd_d vss_d BUFFD2LVT
Xinput26 dac_astate_p[14] net26 vdd_d vss_d BUFFD2LVT
Xinput25 dac_astate_p[13] net25 vdd_d vss_d BUFFD2LVT
Xinput24 dac_astate_p[12] net24 vdd_d vss_d BUFFD2LVT
Xinput23 dac_astate_p[11] net23 vdd_d vss_d BUFFD2LVT
Xinput22 dac_astate_p[10] net22 vdd_d vss_d BUFFD2LVT
Xinput21 dac_astate_p[0] net21 vdd_d vss_d BUFFD2LVT
Xinput20 dac_astate_n[9] net20 vdd_d vss_d BUFFD2LVT
Xinput19 dac_astate_n[8] net19 vdd_d vss_d BUFFD2LVT
Xinput18 dac_astate_n[7] net18 vdd_d vss_d BUFFD2LVT
Xinput17 dac_astate_n[6] net17 vdd_d vss_d BUFFD2LVT
Xinput16 dac_astate_n[5] net16 vdd_d vss_d BUFFD2LVT
Xinput15 dac_astate_n[4] net15 vdd_d vss_d BUFFD2LVT
Xinput14 dac_astate_n[3] net14 vdd_d vss_d BUFFD2LVT
Xinput13 dac_astate_n[2] net13 vdd_d vss_d BUFFD2LVT
Xinput12 dac_astate_n[1] net12 vdd_d vss_d BUFFD2LVT
Xinput11 dac_astate_n[15] net11 vdd_d vss_d BUFFD2LVT
Xinput10 dac_astate_n[14] net10 vdd_d vss_d BUFFD2LVT
Xinput9 dac_astate_n[13] net9 vdd_d vss_d BUFFD2LVT
Xinput8 dac_astate_n[12] net8 vdd_d vss_d BUFFD2LVT
Xinput7 dac_astate_n[11] net7 vdd_d vss_d BUFFD2LVT
Xinput6 dac_astate_n[10] net6 vdd_d vss_d BUFFD2LVT
Xinput5 dac_astate_n[0] net5 vdd_d vss_d BUFFD2LVT
Xinput4 comp_out_p net4 vdd_d vss_d BUFFD2LVT
Xinput3 comp_out_n net3 vdd_d vss_d BUFFD2LVT
Xsalogic_dual/dac_cycle\[0\]$_SDFF_PP0_ salogic_dual/_000_
+ clknet_2_2__leaf_clk_update salogic_dual/dac_cycle\[0\] vdd_d
+ vss_d DFQD1LVT
Xsalogic_dual/dac_cycle\[10\]$_SDFF_PP0_ salogic_dual/_001_
+ clknet_2_3__leaf_clk_update salogic_dual/dac_cycle\[10\] vdd_d
+ vss_d DFQD1LVT
Xsalogic_dual/dac_cycle\[11\]$_SDFF_PP0_ salogic_dual/_002_
+ clknet_2_3__leaf_clk_update salogic_dual/dac_cycle\[11\] vdd_d
+ vss_d DFQD1LVT
Xsalogic_dual/dac_cycle\[12\]$_SDFF_PP0_ salogic_dual/_003_
+ clknet_2_3__leaf_clk_update salogic_dual/dac_cycle\[12\] vdd_d
+ vss_d DFQD1LVT
Xsalogic_dual/dac_cycle\[13\]$_SDFF_PP0_ salogic_dual/_004_
+ clknet_2_1__leaf_clk_update salogic_dual/dac_cycle\[13\] vdd_d
+ vss_d DFQD1LVT
Xsalogic_dual/dac_cycle\[14\]$_SDFF_PP0_ salogic_dual/_005_
+ clknet_2_1__leaf_clk_update salogic_dual/dac_cycle\[14\] vdd_d
+ vss_d DFQD1LVT
Xsalogic_dual/dac_cycle\[15\]$_DFF_P_ net148 clknet_2_1__leaf_clk_update
+ salogic_dual/dac_cycle\[15\] vdd_d vss_d DFQD1LVT
Xsalogic_dual/dac_cycle\[1\]$_SDFF_PP0_ salogic_dual/_006_
+ clknet_2_2__leaf_clk_update salogic_dual/dac_cycle\[1\] vdd_d
+ vss_d DFQD1LVT
Xsalogic_dual/dac_cycle\[2\]$_SDFF_PP0_ salogic_dual/_007_
+ clknet_2_0__leaf_clk_update salogic_dual/dac_cycle\[2\] vdd_d
+ vss_d DFQD1LVT
Xsalogic_dual/dac_cycle\[3\]$_SDFF_PP0_ salogic_dual/_008_
+ clknet_2_0__leaf_clk_update salogic_dual/dac_cycle\[3\] vdd_d
+ vss_d DFQD1LVT
Xsalogic_dual/dac_cycle\[4\]$_SDFF_PP0_ salogic_dual/_009_
+ clknet_2_0__leaf_clk_update salogic_dual/dac_cycle\[4\] vdd_d
+ vss_d DFQD1LVT
Xsalogic_dual/dac_cycle\[5\]$_SDFF_PP0_ salogic_dual/_010_
+ clknet_2_0__leaf_clk_update salogic_dual/dac_cycle\[5\] vdd_d
+ vss_d DFQD1LVT
Xsalogic_dual/dac_cycle\[6\]$_SDFF_PP0_ salogic_dual/_011_
+ clknet_2_0__leaf_clk_update salogic_dual/dac_cycle\[6\] vdd_d
+ vss_d DFQD1LVT
Xsalogic_dual/dac_cycle\[7\]$_SDFF_PP0_ salogic_dual/_012_
+ clknet_2_1__leaf_clk_update salogic_dual/dac_cycle\[7\] vdd_d
+ vss_d DFQD1LVT
Xsalogic_dual/dac_cycle\[8\]$_SDFF_PP0_ salogic_dual/_013_
+ clknet_2_0__leaf_clk_update salogic_dual/dac_cycle\[8\] vdd_d
+ vss_d DFQD1LVT
Xsalogic_dual/dac_cycle\[9\]$_SDFF_PP0_ salogic_dual/_014_
+ clknet_2_3__leaf_clk_update salogic_dual/dac_cycle\[9\] vdd_d
+ vss_d DFQD1LVT
Xsalogic_dual/dac_ff\[0\].dac_state_n_ff.dffe salogic_dual/dac_ff\[0\].dac_state_n_ff.D
+ salogic_dual/dac_ff\[0\].dac_state_n_ff.E clknet_2_2__leaf_clk_update
+ net73 _unconnected_8 vdd_d vss_d EDFD2LVT
Xsalogic_dual/dac_ff\[0\].dac_state_p_ff.dffe salogic_dual/dac_ff\[0\].dac_state_p_ff.D
+ salogic_dual/dac_ff\[0\].dac_state_n_ff.E clknet_2_2__leaf_clk_update
+ net105 _unconnected_9 vdd_d vss_d EDFD2LVT
Xsalogic_dual/dac_ff\[10\].dac_state_n_ff.dffe salogic_dual/dac_ff\[10\].dac_state_n_ff.D
+ salogic_dual/dac_ff\[10\].dac_state_n_ff.E clknet_2_3__leaf_clk_update
+ net74 _unconnected_10 vdd_d vss_d EDFD2LVT
Xsalogic_dual/dac_ff\[10\].dac_state_p_ff.dffe salogic_dual/dac_ff\[10\].dac_state_p_ff.D
+ salogic_dual/dac_ff\[10\].dac_state_n_ff.E clknet_2_3__leaf_clk_update
+ net106 _unconnected_11 vdd_d vss_d EDFD2LVT
Xsalogic_dual/dac_ff\[11\].dac_state_n_ff.dffe salogic_dual/dac_ff\[11\].dac_state_n_ff.D
+ salogic_dual/dac_ff\[11\].dac_state_n_ff.E clknet_2_3__leaf_clk_update