* CDL Netlist generated by OpenROAD
*.BUSDELIMITER [

.SUBCKT frida_core comp_out reset_b seq_comp seq_init seq_logic
+ seq_samp spi_cs_b spi_sclk spi_sdi spi_sdo
+ vin_p vin_n
+ vdd_a vss_a vdd_d vss_d vdd_dac vss_dac

Xadc_array\[0\].adc_inst net3285 net3301 net3315 net3337 adc_comparator_out\[0\]
+ spi_bits\[64\] spi_bits\[65\] spi_bits\[66\] spi_bits\[67\]
+ spi_bits\[68\] spi_bits\[69\] spi_bits\[70\] net2961 net2964
+ net2965 net2966 net2970 net2973 net2975 net2976 net2978 net2980
+ net2982 net2985 net2986 net2988 net2993 net2996 net2997 net2998
+ net2999 net3000 net3001 net3002 net3003 net3005 net3009 net3010
+ net3011 net3012 net3014 net3015 net3017 net3019 net3020 net3023
+ net3026 net3027 net3028 net3029 net3031 net3033 net3035 net3037
+ net3040 net3041 net3045 net3047 net3049 net3064 net3079 net3092
+ net3108 net3120 net3133 net3145 net2942 net2954 net2957 net2960
+ net2969 net2991 net3007 net3024 net3043 net3157 vin_p vin_n
+ vdd_a vss_a vdd_d vss_d vdd_dac vss_dac adc
Xadc_array\[10\].adc_inst net3289 net3305 net3319 net3329
+ adc_comparator_out\[10\] net3114 net3113 net3112 net3111 net3110
+ net3109 net3107 net2963 net2964 net2965 net2967 net2971 net2972
+ net2974 net2977 net2979 net2981 net2983 net2984 net2987 net2989
+ net2994 net2995 net2997 net2998 net2999 net3000 net3001 net3002
+ net3003 net3004 net3009 net3010 net3011 net3013 net3014 net3016
+ net3018 net3019 net3020 net3022 net3026 net3027 net3028 net3030
+ net3032 net3034 net3036 net3038 net3039 net3042 net3046 net3048
+ net3050 net3065 net3080 net3093 net3108 net3119 net3133 net3145
+ net2942 net2954 net2956 net2960 net2968 net2991 net3007 net3025
+ net3044 net3157 vin_p vin_n vdd_a vss_a vdd_d vss_d vdd_dac
+ vss_dac adc
Xadc_array\[11\].adc_inst net3288 net3304 net3318 net3328
+ adc_comparator_out\[11\] net3106 net3105 net3104 net3103 net3102
+ net3101 net3099 net2963 net2964 net2965 net2967 net2971 net2972
+ net2974 net2977 net2979 net2981 net2983 net2984 net2987 net2989
+ net2994 net2995 net2997 net2998 net2999 net3000 net3001 net3002
+ net3003 net3004 net3009 net3010 net3011 net3013 net3014 net3016
+ net3018 net3019 net3020 net3022 net3026 net3027 net3028 net3030
+ net3032 net3034 net3036 net3038 net3039 net3042 net3046 net3048
+ net3050 net3065 net3080 net3093 net3108 net3119 net3133 net3146
+ net3254 net2954 net2956 net2960 net2968 net2992 net3008 net3025
+ net3044 net3157 vin_p vin_n vdd_a vss_a vdd_d vss_d vdd_dac
+ vss_dac adc
Xadc_array\[12\].adc_inst net3292 net3308 net3322 net3332
+ adc_comparator_out\[12\] net3097 net3094 net3091 net3090 net3089
+ net3088 net3087 net2961 net2964 net2965 net2966 net2970 net2973
+ net2975 net2976 net2978 net2980 net2982 net2985 net2986 net2988
+ net2993 net2996 net2997 net2998 net2999 net3000 net3001 net3002
+ net3003 net3005 net3009 net3010 net3011 net3012 net3014 net3015
+ net3017 net3019 net3020 net3023 net3026 net3027 net3028 net3029
+ net3031 net3033 net3035 net3037 net3040 net3041 net3045 net3047
+ net3049 net3064 net3079 net3092 net3108 net3120 net3133 net3145
+ net2942 net2954 net2957 net2960 net2969 net2991 net3007 net3024
+ net3043 net3157 vin_p vin_n vdd_a vss_a vdd_d vss_d vdd_dac
+ vss_dac adc
Xadc_array\[13\].adc_inst net3292 net3308 net3322 net3332
+ adc_comparator_out\[13\] net3086 net3084 net3083 net3082 net3081
+ net3078 net3077 net2963 net2964 net2965 net2966 net2970 net2973
+ net2975 net2976 net2978 net2980 net2982 net2985 net2986 net2988
+ net2993 net2996 net2997 net2998 net2999 net3000 net3001 net3002
+ net3003 net3005 net3009 net3010 net3011 net3012 net3014 net3015
+ net3017 net3019 net3020 net3023 net3026 net3027 net3028 net3029
+ net3031 net3033 net3035 net3037 net3040 net3041 net3045 net3047
+ net3049 net3064 net3079 net3092 net3108 net3120 net3133 net3145
+ net2942 net2954 net2957 net2960 net2969 net2991 net3007 net3024
+ net3043 net3157 vin_p vin_n vdd_a vss_a vdd_d vss_d vdd_dac
+ vss_dac adc
Xadc_array\[14\].adc_inst net3290 net3306 net3320 net3330
+ adc_comparator_out\[14\] net3076 net3074 net3073 net3072 net3071
+ net3070 net3067 net2963 net2964 net2965 net2967 net2971 net2972
+ net2974 net2977 net2979 net2981 net2983 net2984 net2987 net2989
+ net2994 net2995 net2997 net2998 net2999 net3000 net3001 net3002
+ net3003 net3004 net3009 net3010 net3011 net3013 net3014 net3016
+ net3018 net3019 net3020 net3022 net3026 net3027 net3028 net3030
+ net3032 net3034 net3036 net3038 net3039 net3042 net3046 net3048
+ net3050 net3065 net3080 net3093 net3108 net3119 net3133 net3145
+ net2942 net2954 net2956 net2960 net2968 net2991 net3007 net3025
+ net3044 net3157 vin_p vin_n vdd_a vss_a vdd_d vss_d vdd_dac
+ vss_dac adc
Xadc_array\[15\].adc_inst net3288 net3304 net3318 net3328
+ adc_comparator_out\[15\] net3066 net3063 net3062 net3061 net3060
+ net3059 net3058 net2963 net2964 net2965 net2967 net2971 net2972
+ net2974 net2977 net2979 net2981 net2983 net2984 net2987 net2989
+ net2994 net2995 net2997 net2998 net2999 net3000 net3001 net3002
+ net3003 net3004 net3009 net3010 net3011 net3013 net3014 net3016
+ net3018 net3019 net3020 net3022 net3026 net3027 net3028 net3030
+ net3032 net3034 net3036 net3038 net3039 net3042 net3046 net3048
+ net3050 net3065 net3080 net3093 net3108 net3119 net3133 net3146
+ net3254 net2954 net2956 net2960 net2968 net2992 net3008 net3025
+ net3044 net3157 vin_p vin_n vdd_a vss_a vdd_d vss_d vdd_dac
+ vss_dac adc
Xadc_array\[1\].adc_inst net3285 net3301 net3315 net3337 adc_comparator_out\[1\]
+ net2959 spi_bits\[72\] spi_bits\[73\] spi_bits\[74\] spi_bits\[75\]
+ spi_bits\[76\] spi_bits\[77\] net2963 net2964 net2965 net2966
+ net2970 net2973 net2975 net2976 net2978 net2980 net2982 net2985
+ net2986 net2988 net2993 net2996 net2997 net2998 net2999 net3000
+ net3001 net3002 net3003 net3005 net3009 net3010 net3011 net3012
+ net3014 net3015 net3017 net3019 net3020 net3023 net3026 net3027
+ net3028 net3029 net3031 net3033 net3035 net3037 net3040 net3041
+ net3045 net3047 net3049 net3064 net3079 net3092 net3108 net3120
+ net3133 net3145 net2942 net2954 net2957 net2960 net2969 net2991
+ net3007 net3024 net3043 net3159 vin_p vin_n vdd_a vss_a vdd_d
+ vss_d vdd_dac vss_dac adc
Xadc_array\[2\].adc_inst net3284 net3300 net3314 net3336 adc_comparator_out\[2\]
+ net2958 spi_bits\[79\] spi_bits\[80\] spi_bits\[81\] spi_bits\[82\]
+ spi_bits\[83\] spi_bits\[84\] net2963 net2964 net2965 net2967
+ net2971 net2972 net2974 net2977 net2979 net2981 net2983 net2984
+ net2987 net2989 net2994 net2995 net2997 net2998 net2999 net3000
+ net3001 net3002 net3003 net3004 net3009 net3010 net3011 net3013
+ net3014 net3016 net3018 net3019 net3020 net3022 net3026 net3027
+ net3028 net3030 net3032 net3034 net3036 net3038 net3039 net3042
+ net3046 net3048 net3050 net3065 net3080 net3093 net3108 net3119
+ net3133 net3145 net2942 net2954 net2956 net2960 net2968 net2991
+ net3007 net3025 net3044 net3159 vin_p vin_n vdd_a vss_a vdd_d
+ vss_d vdd_dac vss_dac adc
Xadc_array\[3\].adc_inst net3282 net3298 net3312 net3334 adc_comparator_out\[3\]
+ spi_bits\[85\] spi_bits\[86\] spi_bits\[87\] spi_bits\[88\]
+ spi_bits\[89\] spi_bits\[90\] spi_bits\[91\] net2963 net2964
+ net2965 net2967 net2971 net2972 net2974 net2977 net2979 net2981
+ net2983 net2984 net2987 net2989 net2994 net2995 net2997 net2998
+ net2999 net3000 net3001 net3002 net3003 net3004 net3009 net3010
+ net3011 net3013 net3014 net3016 net3018 net3019 net3020 net3022
+ net3026 net3027 net3028 net3030 net3032 net3034 net3036 net3038
+ net3039 net3042 net3046 net3048 net3050 net3065 net3080 net3093
+ net3108 net3119 net3133 net3146 net3254 net2954 net2956 net2960
+ net2968 net2992 net3008 net3025 net3044 net3159 vin_p vin_n
+ vdd_a vss_a vdd_d vss_d vdd_dac vss_dac adc
Xadc_array\[4\].adc_inst net3286 net3302 net3316 net3338 adc_comparator_out\[4\]
+ net2951 net2950 net2949 net2948 net2947 net2946 net2945 net2961
+ net2964 net2965 net2966 net2970 net2973 net2975 net2976 net2978
+ net2980 net2982 net2985 net2986 net2988 net2993 net2996 net2997
+ net2998 net2999 net3000 net3001 net3002 net3003 net3005 net3009
+ net3010 net3011 net3012 net3014 net3015 net3017 net3019 net3020
+ net3023 net3026 net3027 net3028 net3029 net3031 net3033 net3035
+ net3037 net3040 net3041 net3045 net3047 net3049 net3064 net3079
+ net3092 net3108 net3120 net3133 net3145 net2942 net2954 net2957
+ net2960 net2969 net2991 net3007 net3024 net3043 net3157 vin_p
+ vin_n vdd_a vss_a vdd_d vss_d vdd_dac vss_dac adc
Xadc_array\[5\].adc_inst net3286 net3302 net3316 net3338 adc_comparator_out\[5\]
+ net2944 net3156 net3155 net3154 net3153 net3152 net3151 net2963
+ net2964 net2965 net2966 net2970 net2973 net2975 net2976 net2978
+ net2980 net2982 net2985 net2986 net2988 net2993 net2996 net2997
+ net2998 net2999 net3000 net3001 net3002 net3003 net3005 net3009
+ net3010 net3011 net3012 net3014 net3015 net3017 net3019 net3020
+ net3023 net3026 net3027 net3028 net3029 net3031 net3033 net3035
+ net3037 net3040 net3041 net3045 net3047 net3049 net3064 net3079
+ net3092 net3108 net3120 net3133 net3145 net2942 net2954 net2957
+ net2960 net2969 net2991 net3007 net3024 net3043 net3157 vin_p
+ vin_n vdd_a vss_a vdd_d vss_d vdd_dac vss_dac adc
Xadc_array\[6\].adc_inst net3283 net3299 net3313 net3335 adc_comparator_out\[6\]
+ net3150 net3149 net3148 net3147 net3144 net3143 net3142 net2963
+ net2964 net2965 net2967 net2971 net2972 net2974 net2977 net2979
+ net2981 net2983 net2984 net2987 net2989 net2994 net2995 net2997
+ net2998 net2999 net3000 net3001 net3002 net3003 net3004 net3009
+ net3010 net3011 net3013 net3014 net3016 net3018 net3019 net3020
+ net3022 net3026 net3027 net3028 net3030 net3032 net3034 net3036
+ net3038 net3039 net3042 net3046 net3048 net3050 net3065 net3080
+ net3093 net3108 net3119 net3133 net3145 net2942 net2954 net2956
+ net2960 net2968 net2991 net3007 net3025 net3044 net3157 vin_p
+ vin_n vdd_a vss_a vdd_d vss_d vdd_dac vss_dac adc
Xadc_array\[7\].adc_inst net3282 net3298 net3312 net3334 adc_comparator_out\[7\]
+ net3141 net3140 net3139 net3138 net3137 net3136 net3135 net2963
+ net2964 net2965 net2967 net2971 net2972 net2974 net2977 net2979
+ net2981 net2983 net2984 net2987 net2989 net2994 net2995 net2997
+ net2998 net2999 net3000 net3001 net3002 net3003 net3004 net3009
+ net3010 net3011 net3013 net3014 net3016 net3018 net3019 net3020
+ net3022 net3026 net3027 net3028 net3030 net3032 net3034 net3036
+ net3038 net3039 net3042 net3046 net3048 net3050 net3065 net3080
+ net3093 net3108 net3119 net3133 net3146 net3254 net2954 net2956
+ net2960 net2968 net2992 net3008 net3025 net3044 net3157 vin_p
+ vin_n vdd_a vss_a vdd_d vss_d vdd_dac vss_dac adc
Xadc_array\[8\].adc_inst net3291 net3307 net3321 net3331 adc_comparator_out\[8\]
+ net3132 net3130 net3129 net3128 net3127 net3126 net3124 net2961
+ net2964 net2965 net2966 net2970 net2973 net2975 net2976 net2978
+ net2980 net2982 net2985 net2986 net2988 net2993 net2996 net2997
+ net2998 net2999 net3000 net3001 net3002 net3003 net3005 net3009
+ net3010 net3011 net3012 net3014 net3015 net3017 net3019 net3020
+ net3023 net3026 net3027 net3028 net3029 net3031 net3033 net3035
+ net3037 net3040 net3041 net3045 net3047 net3049 net3064 net3079
+ net3092 net3108 net3120 net3133 net3145 net2942 net2954 net2957
+ net2960 net2969 net2991 net3007 net3024 net3043 net3157 vin_p
+ vin_n vdd_a vss_a vdd_d vss_d vdd_dac vss_dac adc
Xadc_array\[9\].adc_inst net3291 net3307 net3321 net3331 adc_comparator_out\[9\]
+ net3123 net3122 net3121 net3118 net3117 net3116 net3115 net2963
+ net2964 net2965 net2966 net2970 net2973 net2975 net2976 net2978
+ net2980 net2982 net2985 net2986 net2988 net2993 net2996 net2997
+ net2998 net2999 net3000 net3001 net3002 net3003 net3005 net3009
+ net3010 net3011 net3012 net3014 net3015 net3017 net3019 net3020
+ net3023 net3026 net3027 net3028 net3029 net3031 net3033 net3035
+ net3037 net3040 net3041 net3045 net3047 net3049 net3064 net3079
+ net3092 net3108 net3120 net3133 net3145 net2942 net2954 net2957
+ net2960 net2969 net2991 net3007 net3024 net3043 net3157 vin_p
+ vin_n vdd_a vss_a vdd_d vss_d vdd_dac vss_dac adc
Xcomp_mux/_43_ net3238 comp_mux/_00_ vdd_d vss_d CKND0LVT
Xcomp_mux/_45_ net3165 net3054 net3052 comp_mux/_02_ vdd_d
+ vss_d NR3D0LVT
Xcomp_mux/_46_ net3052 comp_mux/_03_ vdd_d vss_d INVD2LVT
Xcomp_mux/_47_ comp_mux/_03_ net3054 comp_mux/_04_ vdd_d vss_d
+ ND2D2LVT
Xcomp_mux/_48_ adc_comparator_out\[13\] comp_mux/_05_ vdd_d
+ vss_d INVD1LVT
Xcomp_mux/_49_ comp_mux/_04_ net3164 comp_mux/_06_ vdd_d vss_d
+ NR2D2LVT
Xcomp_mux/_50_ comp_mux/_02_ comp_mux/_06_ comp_mux/_07_ vdd_d
+ vss_d NR2XD1LVT
Xcomp_mux/_51_ net3053 net3234 comp_mux/_08_ vdd_d vss_d NR2XD0LVT
Xcomp_mux/_52_ comp_mux/_08_ comp_mux/_03_ comp_mux/_09_ vdd_d
+ vss_d NR2XD0LVT
Xcomp_mux/_53_ net3230 spi_bits\[176\] comp_mux/_10_ vdd_d
+ vss_d IND2D0LVT
Xcomp_mux/_54_ comp_mux/_09_ comp_mux/_10_ comp_mux/_11_ vdd_d
+ vss_d CKND2D1LVT
Xcomp_mux/_55_ comp_mux/_07_ spi_bits\[178\] comp_mux/_11_
+ comp_mux/_12_ vdd_d vss_d ND3D2LVT
Xcomp_mux/_56_ net3054 net3052 comp_mux/_13_ vdd_d vss_d NR2D2LVT
Xcomp_mux/_57_ comp_mux/_13_ net3211 comp_mux/_14_ vdd_d vss_d
+ ND2D1LVT
Xcomp_mux/_58_ spi_bits\[178\] comp_mux/_15_ vdd_d vss_d CKND0LVT
Xcomp_mux/_59_ comp_mux/_14_ comp_mux/_15_ comp_mux/_16_ vdd_d
+ vss_d CKND2D1LVT
Xcomp_mux/_60_ net3206 comp_mux/_04_ comp_mux/_17_ vdd_d vss_d
+ INR2D2LVT
Xcomp_mux/_61_ comp_mux/_16_ comp_mux/_17_ comp_mux/_18_ vdd_d
+ vss_d NR2XD1LVT
Xcomp_mux/_62_ net3054 comp_mux/_19_ vdd_d vss_d CKND2LVT
Xcomp_mux/_63_ net3245 comp_mux/_19_ comp_mux/_20_ vdd_d vss_d
+ IND2D1LVT
Xcomp_mux/_64_ net3242 net3053 comp_mux/_21_ vdd_d vss_d IND2D0LVT
Xcomp_mux/_65_ comp_mux/_20_ comp_mux/_21_ net3052 comp_mux/_22_
+ vdd_d vss_d ND3D0LVT
Xcomp_mux/_66_ comp_mux/_18_ comp_mux/_22_ comp_mux/_23_ vdd_d
+ vss_d ND2D1LVT
Xcomp_mux/_67_ comp_mux/_12_ comp_mux/_23_ net3051 comp_mux/_24_
+ vdd_d vss_d ND3D2LVT
Xcomp_mux/_68_ net3054 net3216 net3052 comp_mux/_25_ vdd_d
+ vss_d OAI21D1LVT
Xcomp_mux/_69_ comp_mux/_19_ net3215 comp_mux/_25_ comp_mux/_26_
+ vdd_d vss_d IAO21D2LVT
Xcomp_mux/_70_ comp_mux/_13_ net3223 comp_mux/_27_ vdd_d vss_d
+ ND2D1LVT
Xcomp_mux/_71_ comp_mux/_03_ net3054 net3219 comp_mux/_28_
+ vdd_d vss_d ND3D2LVT
Xcomp_mux/_72_ comp_mux/_27_ comp_mux/_28_ comp_mux/_29_ vdd_d
+ vss_d CKND2D2LVT
Xcomp_mux/_73_ comp_mux/_26_ comp_mux/_29_ comp_mux/_30_ vdd_d
+ vss_d NR2XD1LVT
Xcomp_mux/_74_ net3051 spi_bits\[178\] comp_mux/_31_ vdd_d
+ vss_d IND2D0LVT
Xcomp_mux/_75_ comp_mux/_30_ comp_mux/_31_ comp_mux/_32_ vdd_d
+ vss_d NR2D1LVT
Xcomp_mux/_76_ net3051 spi_bits\[178\] comp_mux/_33_ vdd_d
+ vss_d NR2D1LVT
Xcomp_mux/_77_ comp_mux/_33_ net3052 comp_mux/_34_ vdd_d vss_d
+ CKND2D0LVT
Xcomp_mux/_78_ net3224 comp_mux/_19_ comp_mux/_34_ comp_mux/_35_
+ vdd_d vss_d INR3D0LVT
Xcomp_mux/_79_ comp_mux/_32_ comp_mux/_35_ comp_mux/_36_ vdd_d
+ vss_d NR2D2LVT
Xcomp_mux/_80_ comp_mux/_24_ comp_mux/_36_ comp_mux/_37_ vdd_d
+ vss_d ND2D2LVT
Xcomp_mux/_81_ adc_comparator_out\[2\] net3054 comp_mux/_34_
+ comp_mux/_38_ vdd_d vss_d INR3D0LVT
Xcomp_mux/_82_ comp_mux/_33_ comp_mux/_39_ vdd_d vss_d CKND0LVT
Xcomp_mux/_83_ net3225 comp_mux/_04_ comp_mux/_39_ comp_mux/_40_
+ vdd_d vss_d INR3D0LVT
Xcomp_mux/_84_ comp_mux/_37_ comp_mux/_38_ comp_mux/_40_ comp_mux/_41_
+ vdd_d vss_d NR3D1LVT
Xcomp_mux/_85_ comp_mux/_13_ comp_mux/_33_ net3248 comp_mux/_42_
+ vdd_d vss_d ND3D1LVT
Xcomp_mux/_86_ comp_mux/_41_ comp_mux/_42_ net4 vdd_d vss_d
+ CKND2D2LVT
Xspi_reg/_0607_ spi_reg/_0187_ spi_reg/_0192_ spi_reg/_0000_
+ vdd_d vss_d CKND2D1LVT
Xspi_reg/_0608_ net2838 spi_bits\[100\] spi_reg/_0193_ vdd_d
+ vss_d ND2D1LVT
Xspi_reg/_0609_ net2883 net2913 spi_bits\[99\] spi_reg/_0194_
+ vdd_d vss_d ND3D0LVT
Xspi_reg/_0610_ spi_reg/_0193_ spi_reg/_0194_ spi_reg/_0001_
+ vdd_d vss_d CKND2D1LVT
Xspi_reg/_0611_ net2838 spi_bits\[101\] spi_reg/_0195_ vdd_d
+ vss_d ND2D1LVT
Xspi_reg/_0612_ net2884 net2914 spi_bits\[100\] spi_reg/_0196_
+ vdd_d vss_d ND3D0LVT
Xspi_reg/_0613_ spi_reg/_0195_ spi_reg/_0196_ spi_reg/_0002_
+ vdd_d vss_d CKND2D1LVT
Xspi_reg/_0614_ net2838 spi_bits\[102\] spi_reg/_0197_ vdd_d
+ vss_d ND2D1LVT
Xspi_reg/_0615_ net2884 net2914 spi_bits\[101\] spi_reg/_0198_
+ vdd_d vss_d ND3D1LVT
Xspi_reg/_0616_ spi_reg/_0197_ spi_reg/_0198_ spi_reg/_0003_
+ vdd_d vss_d CKND2D1LVT
Xspi_reg/_0617_ net2838 spi_bits\[103\] spi_reg/_0199_ vdd_d
+ vss_d ND2D1LVT
Xspi_reg/_0618_ net2884 net2914 spi_bits\[102\] spi_reg/_0200_
+ vdd_d vss_d ND3D0LVT
Xspi_reg/_0619_ spi_reg/_0199_ spi_reg/_0200_ spi_reg/_0004_
+ vdd_d vss_d CKND2D1LVT
Xspi_reg/_0620_ net2838 spi_bits\[104\] spi_reg/_0201_ vdd_d
+ vss_d ND2D1LVT
Xspi_reg/_0621_ net2884 net2914 spi_bits\[103\] spi_reg/_0202_
+ vdd_d vss_d ND3D1LVT
Xspi_reg/_0622_ spi_reg/_0201_ spi_reg/_0202_ spi_reg/_0005_
+ vdd_d vss_d CKND2D1LVT
Xspi_reg/_0623_ net2838 spi_bits\[105\] spi_reg/_0203_ vdd_d
+ vss_d ND2D1LVT
Xspi_reg/_0624_ net2884 net2914 spi_bits\[104\] spi_reg/_0204_
+ vdd_d vss_d ND3D1LVT
Xspi_reg/_0625_ spi_reg/_0203_ spi_reg/_0204_ spi_reg/_0006_
+ vdd_d vss_d CKND2D1LVT
Xspi_reg/_0626_ net2859 spi_bits\[106\] spi_reg/_0205_ vdd_d
+ vss_d ND2D1LVT
Xspi_reg/_0627_ net2887 net2931 spi_bits\[105\] spi_reg/_0206_
+ vdd_d vss_d ND3D0LVT
Xspi_reg/_0628_ spi_reg/_0205_ net2875 spi_reg/_0007_ vdd_d
+ vss_d CKND2D1LVT
Xspi_reg/_0629_ net2860 spi_bits\[107\] spi_reg/_0207_ vdd_d
+ vss_d ND2D1LVT
Xspi_reg/_0630_ net2891 net2934 spi_bits\[106\] spi_reg/_0208_
+ vdd_d vss_d ND3D0LVT
Xspi_reg/_0631_ spi_reg/_0207_ spi_reg/_0208_ spi_reg/_0008_
+ vdd_d vss_d CKND2D1LVT
Xspi_reg/_0632_ net2860 spi_bits\[108\] spi_reg/_0209_ vdd_d
+ vss_d ND2D1LVT
Xspi_reg/_0633_ net2891 net2934 spi_bits\[107\] spi_reg/_0210_
+ vdd_d vss_d ND3D0LVT
Xspi_reg/_0634_ spi_reg/_0209_ spi_reg/_0210_ spi_reg/_0009_
+ vdd_d vss_d CKND2D1LVT
Xspi_reg/_0636_ net2860 spi_bits\[109\] spi_reg/_0212_ vdd_d
+ vss_d ND2D1LVT
Xspi_reg/_0639_ net2892 net2935 spi_bits\[108\] spi_reg/_0215_
+ vdd_d vss_d ND3D1LVT
Xspi_reg/_0640_ spi_reg/_0212_ spi_reg/_0215_ spi_reg/_0010_
+ vdd_d vss_d CKND2D1LVT
Xspi_reg/_0641_ net2862 spi_bits\[10\] spi_reg/_0216_ vdd_d
+ vss_d ND2D1LVT
Xspi_reg/_0642_ net2893 net2935 spi_bits\[9\] spi_reg/_0217_
+ vdd_d vss_d ND3D0LVT
Xspi_reg/_0643_ spi_reg/_0216_ spi_reg/_0217_ spi_reg/_0011_
+ vdd_d vss_d CKND2D1LVT
Xspi_reg/_0644_ net2858 spi_bits\[110\] spi_reg/_0218_ vdd_d
+ vss_d ND2D1LVT
Xspi_reg/_0645_ net2892 net2935 spi_bits\[109\] spi_reg/_0219_
+ vdd_d vss_d ND3D1LVT
Xspi_reg/_0646_ spi_reg/_0218_ spi_reg/_0219_ spi_reg/_0012_
+ vdd_d vss_d CKND2D1LVT
Xspi_reg/_0647_ net2858 spi_bits\[111\] spi_reg/_0220_ vdd_d
+ vss_d ND2D1LVT
Xspi_reg/_0648_ net2892 net2935 spi_bits\[110\] spi_reg/_0221_
+ vdd_d vss_d ND3D1LVT
Xspi_reg/_0649_ spi_reg/_0220_ spi_reg/_0221_ spi_reg/_0013_
+ vdd_d vss_d CKND2D1LVT
Xspi_reg/_0650_ net2862 spi_bits\[112\] spi_reg/_0222_ vdd_d
+ vss_d ND2D1LVT
Xspi_reg/_0651_ net2892 net2936 spi_bits\[111\] spi_reg/_0223_
+ vdd_d vss_d ND3D0LVT
Xspi_reg/_0652_ spi_reg/_0222_ spi_reg/_0223_ spi_reg/_0014_
+ vdd_d vss_d CKND2D1LVT
Xspi_reg/_0653_ net2864 spi_bits\[113\] spi_reg/_0224_ vdd_d
+ vss_d ND2D1LVT
Xspi_reg/_0654_ net2893 net2937 spi_bits\[112\] spi_reg/_0225_
+ vdd_d vss_d ND3D0LVT
Xspi_reg/_0655_ spi_reg/_0224_ spi_reg/_0225_ spi_reg/_0015_
+ vdd_d vss_d CKND2D1LVT
Xspi_reg/_0656_ net2864 spi_bits\[114\] spi_reg/_0226_ vdd_d
+ vss_d ND2D1LVT
Xspi_reg/_0657_ net2893 net2937 spi_bits\[113\] spi_reg/_0227_
+ vdd_d vss_d ND3D0LVT
Xspi_reg/_0658_ spi_reg/_0226_ spi_reg/_0227_ spi_reg/_0016_
+ vdd_d vss_d CKND2D1LVT
Xspi_reg/_0659_ net2864 spi_bits\[115\] spi_reg/_0228_ vdd_d
+ vss_d ND2D1LVT
Xspi_reg/_0660_ net2894 net2937 spi_bits\[114\] spi_reg/_0229_
+ vdd_d vss_d ND3D0LVT
Xspi_reg/_0661_ spi_reg/_0228_ spi_reg/_0229_ spi_reg/_0017_
+ vdd_d vss_d CKND2D1LVT
Xspi_reg/_0662_ net2864 spi_bits\[116\] spi_reg/_0230_ vdd_d
+ vss_d ND2D1LVT
Xspi_reg/_0663_ net2894 net2937 spi_bits\[115\] spi_reg/_0231_
+ vdd_d vss_d ND3D0LVT
Xspi_reg/_0664_ spi_reg/_0230_ spi_reg/_0231_ spi_reg/_0018_
+ vdd_d vss_d CKND2D1LVT
Xspi_reg/_0665_ net2864 spi_bits\[117\] spi_reg/_0232_ vdd_d
+ vss_d ND2D1LVT
Xspi_reg/_0666_ net2894 net2937 spi_bits\[116\] spi_reg/_0233_
+ vdd_d vss_d ND3D0LVT
Xspi_reg/_0667_ spi_reg/_0232_ spi_reg/_0233_ spi_reg/_0019_
+ vdd_d vss_d CKND2D1LVT
Xspi_reg/_0669_ net2864 spi_bits\[118\] spi_reg/_0235_ vdd_d
+ vss_d ND2D1LVT
Xplace2909 net3256 net2909 vdd_d vss_d CKBD2LVT
Xspi_reg/_0672_ net2893 net2937 spi_bits\[117\] spi_reg/_0238_
+ vdd_d vss_d ND3D0LVT
Xspi_reg/_0673_ spi_reg/_0235_ spi_reg/_0238_ spi_reg/_0020_
+ vdd_d vss_d CKND2D1LVT
Xspi_reg/_0674_ net2864 spi_bits\[119\] spi_reg/_0239_ vdd_d
+ vss_d ND2D1LVT
Xspi_reg/_0675_ net2893 net2937 spi_bits\[118\] spi_reg/_0240_
+ vdd_d vss_d ND3D0LVT
Xspi_reg/_0676_ spi_reg/_0239_ spi_reg/_0240_ spi_reg/_0021_
+ vdd_d vss_d CKND2D1LVT
Xspi_reg/_0677_ net2862 spi_bits\[11\] spi_reg/_0241_ vdd_d
+ vss_d ND2D1LVT
Xspi_reg/_0678_ net2893 net2937 spi_bits\[10\] spi_reg/_0242_
+ vdd_d vss_d ND3D0LVT
Xspi_reg/_0679_ spi_reg/_0241_ spi_reg/_0242_ spi_reg/_0022_
+ vdd_d vss_d CKND2D1LVT
Xspi_reg/_0680_ net2846 spi_bits\[120\] spi_reg/_0243_ vdd_d
+ vss_d ND2D1LVT
Xspi_reg/_0681_ net2889 net2933 net3134 spi_reg/_0244_ vdd_d
+ vss_d ND3D1LVT
Xspi_reg/_0682_ spi_reg/_0243_ net2874 spi_reg/_0023_ vdd_d
+ vss_d CKND2D1LVT
Xspi_reg/_0683_ net2848 spi_bits\[121\] spi_reg/_0245_ vdd_d
+ vss_d ND2D1LVT
Xspi_reg/_0684_ net2882 net2911 net3131 spi_reg/_0246_ vdd_d
+ vss_d ND3D1LVT
Xspi_reg/_0685_ spi_reg/_0245_ spi_reg/_0246_ spi_reg/_0024_
+ vdd_d vss_d CKND2D1LVT
Xspi_reg/_0686_ net2848 spi_bits\[122\] spi_reg/_0247_ vdd_d
+ vss_d ND2D1LVT
Xspi_reg/_0687_ net2882 net2911 spi_bits\[121\] spi_reg/_0248_
+ vdd_d vss_d ND3D0LVT
Xspi_reg/_0688_ spi_reg/_0247_ spi_reg/_0248_ spi_reg/_0025_
+ vdd_d vss_d CKND2D1LVT
Xspi_reg/_0689_ net2848 spi_bits\[123\] spi_reg/_0249_ vdd_d
+ vss_d ND2D1LVT
Xspi_reg/_0690_ net2882 net2911 spi_bits\[122\] spi_reg/_0250_
+ vdd_d vss_d ND3D0LVT
Xspi_reg/_0691_ spi_reg/_0249_ spi_reg/_0250_ spi_reg/_0026_
+ vdd_d vss_d CKND2D1LVT
Xspi_reg/_0692_ net2848 spi_bits\[124\] spi_reg/_0251_ vdd_d
+ vss_d ND2D1LVT
Xspi_reg/_0693_ net2882 net2911 spi_bits\[123\] spi_reg/_0252_
+ vdd_d vss_d ND3D0LVT
Xspi_reg/_0694_ spi_reg/_0251_ spi_reg/_0252_ spi_reg/_0027_
+ vdd_d vss_d CKND2D1LVT
Xspi_reg/_0695_ net2848 spi_bits\[125\] spi_reg/_0253_ vdd_d
+ vss_d ND2D1LVT
Xspi_reg/_0696_ net2882 net2911 spi_bits\[124\] spi_reg/_0254_
+ vdd_d vss_d ND3D0LVT
Xspi_reg/_0697_ spi_reg/_0253_ spi_reg/_0254_ spi_reg/_0028_
+ vdd_d vss_d CKND2D1LVT
Xspi_reg/_0698_ net2848 spi_bits\[126\] spi_reg/_0255_ vdd_d
+ vss_d ND2D1LVT
Xspi_reg/_0699_ net2882 net2911 spi_bits\[125\] spi_reg/_0256_
+ vdd_d vss_d ND3D1LVT
Xspi_reg/_0700_ spi_reg/_0255_ spi_reg/_0256_ spi_reg/_0029_
+ vdd_d vss_d CKND2D1LVT
Xspi_reg/_0702_ net2846 spi_bits\[127\] spi_reg/_0258_ vdd_d
+ vss_d ND2D1LVT
Xspi_reg/_0705_ net2877 net2916 net3125 spi_reg/_0261_ vdd_d
+ vss_d ND3D0LVT
Xspi_reg/_0706_ spi_reg/_0258_ spi_reg/_0261_ spi_reg/_0030_
+ vdd_d vss_d ND2D1LVT
Xspi_reg/_0707_ net2846 spi_bits\[128\] spi_reg/_0262_ vdd_d
+ vss_d ND2D1LVT
Xspi_reg/_0708_ net2877 net2916 spi_bits\[127\] spi_reg/_0263_
+ vdd_d vss_d ND3D0LVT
Xspi_reg/_0709_ spi_reg/_0262_ spi_reg/_0263_ spi_reg/_0031_
+ vdd_d vss_d CKND2D1LVT
Xspi_reg/_0710_ net2846 spi_bits\[129\] spi_reg/_0264_ vdd_d
+ vss_d ND2D1LVT
Xspi_reg/_0711_ net2877 net2916 spi_bits\[128\] spi_reg/_0265_
+ vdd_d vss_d ND3D0LVT
Xspi_reg/_0712_ spi_reg/_0264_ spi_reg/_0265_ spi_reg/_0032_
+ vdd_d vss_d CKND2D1LVT
Xspi_reg/_0713_ net2859 spi_bits\[12\] spi_reg/_0266_ vdd_d
+ vss_d ND2D1LVT
Xspi_reg/_0714_ net2891 net2934 spi_bits\[11\] spi_reg/_0267_
+ vdd_d vss_d ND3D0LVT
Xspi_reg/_0715_ spi_reg/_0266_ spi_reg/_0267_ spi_reg/_0033_
+ vdd_d vss_d CKND2D1LVT
Xspi_reg/_0716_ net2846 spi_bits\[130\] spi_reg/_0268_ vdd_d
+ vss_d ND2D1LVT
Xspi_reg/_0717_ net2877 net2916 spi_bits\[129\] spi_reg/_0269_
+ vdd_d vss_d ND3D0LVT
Xspi_reg/_0718_ spi_reg/_0268_ spi_reg/_0269_ spi_reg/_0034_
+ vdd_d vss_d CKND2D1LVT
Xspi_reg/_0719_ net2846 spi_bits\[131\] spi_reg/_0270_ vdd_d
+ vss_d ND2D1LVT
Xspi_reg/_0720_ net2878 net2917 spi_bits\[130\] spi_reg/_0271_
+ vdd_d vss_d ND3D0LVT
Xspi_reg/_0721_ spi_reg/_0270_ spi_reg/_0271_ spi_reg/_0035_
+ vdd_d vss_d CKND2D1LVT
Xspi_reg/_0722_ net2846 spi_bits\[132\] spi_reg/_0272_ vdd_d
+ vss_d ND2D1LVT
Xspi_reg/_0723_ net2878 net2917 spi_bits\[131\] spi_reg/_0273_
+ vdd_d vss_d ND3D0LVT
Xspi_reg/_0724_ spi_reg/_0272_ spi_reg/_0273_ spi_reg/_0036_
+ vdd_d vss_d CKND2D1LVT
Xspi_reg/_0725_ net2846 spi_bits\[133\] spi_reg/_0274_ vdd_d
+ vss_d ND2D1LVT
Xspi_reg/_0726_ net2876 net2916 spi_bits\[132\] spi_reg/_0275_
+ vdd_d vss_d ND3D0LVT
Xspi_reg/_0727_ spi_reg/_0274_ spi_reg/_0275_ spi_reg/_0037_
+ vdd_d vss_d CKND2D1LVT
Xspi_reg/_0728_ net2849 spi_bits\[134\] spi_reg/_0276_ vdd_d
+ vss_d ND2D1LVT
Xspi_reg/_0729_ net2878 net2917 spi_bits\[133\] spi_reg/_0277_
+ vdd_d vss_d ND3D0LVT
Xspi_reg/_0730_ spi_reg/_0276_ spi_reg/_0277_ spi_reg/_0038_
+ vdd_d vss_d CKND2D1LVT
Xspi_reg/_0731_ net2850 spi_bits\[135\] spi_reg/_0278_ vdd_d
+ vss_d ND2D1LVT
Xspi_reg/_0732_ net2880 net2919 spi_bits\[134\] spi_reg/_0279_
+ vdd_d vss_d ND3D0LVT
Xspi_reg/_0733_ spi_reg/_0278_ spi_reg/_0279_ spi_reg/_0039_
+ vdd_d vss_d ND2D1LVT
Xspi_reg/_0735_ net2850 spi_bits\[136\] spi_reg/_0281_ vdd_d
+ vss_d ND2D1LVT
Xspi_reg/_0738_ net2880 net2919 spi_bits\[135\] spi_reg/_0284_
+ vdd_d vss_d ND3D0LVT
Xspi_reg/_0739_ spi_reg/_0281_ spi_reg/_0284_ spi_reg/_0040_
+ vdd_d vss_d CKND2D1LVT
Xspi_reg/_0740_ net2850 spi_bits\[137\] spi_reg/_0285_ vdd_d
+ vss_d ND2D1LVT
Xspi_reg/_0741_ net2880 net2919 spi_bits\[136\] spi_reg/_0286_
+ vdd_d vss_d ND3D0LVT
Xspi_reg/_0742_ spi_reg/_0285_ spi_reg/_0286_ spi_reg/_0041_
+ vdd_d vss_d CKND2D1LVT
Xspi_reg/_0743_ net2850 spi_bits\[138\] spi_reg/_0287_ vdd_d
+ vss_d ND2D1LVT
Xspi_reg/_0744_ net2880 net2919 spi_bits\[137\] spi_reg/_0288_
+ vdd_d vss_d ND3D0LVT
Xspi_reg/_0745_ spi_reg/_0287_ spi_reg/_0288_ spi_reg/_0042_
+ vdd_d vss_d CKND2D1LVT
Xspi_reg/_0746_ net2850 spi_bits\[139\] spi_reg/_0289_ vdd_d
+ vss_d ND2D1LVT
Xspi_reg/_0747_ net2880 net2919 spi_bits\[138\] spi_reg/_0290_
+ vdd_d vss_d ND3D0LVT
Xspi_reg/_0748_ spi_reg/_0289_ spi_reg/_0290_ spi_reg/_0043_
+ vdd_d vss_d CKND2D1LVT
Xspi_reg/_0749_ net2860 spi_bits\[13\] spi_reg/_0291_ vdd_d
+ vss_d ND2D1LVT
Xspi_reg/_0750_ net2891 net2934 spi_bits\[12\] spi_reg/_0292_
+ vdd_d vss_d ND3D0LVT
Xspi_reg/_0751_ spi_reg/_0291_ spi_reg/_0292_ spi_reg/_0044_
+ vdd_d vss_d CKND2D1LVT
Xspi_reg/_0752_ net2850 spi_bits\[140\] spi_reg/_0293_ vdd_d
+ vss_d ND2D1LVT
Xspi_reg/_0753_ net2880 net2919 spi_bits\[139\] spi_reg/_0294_
+ vdd_d vss_d ND3D1LVT
Xspi_reg/_0754_ spi_reg/_0293_ spi_reg/_0294_ spi_reg/_0045_
+ vdd_d vss_d CKND2D1LVT
Xspi_reg/_0755_ net2852 spi_bits\[141\] spi_reg/_0295_ vdd_d
+ vss_d ND2D1LVT
Xspi_reg/_0756_ net2880 net2919 spi_bits\[140\] spi_reg/_0296_
+ vdd_d vss_d ND3D1LVT
Xspi_reg/_0757_ spi_reg/_0295_ net2836 spi_reg/_0046_ vdd_d
+ vss_d CKND2D1LVT
Xspi_reg/_0758_ net2852 spi_bits\[142\] spi_reg/_0297_ vdd_d
+ vss_d ND2D1LVT
Xspi_reg/_0759_ net2881 net2920 spi_bits\[141\] spi_reg/_0298_
+ vdd_d vss_d ND3D1LVT
Xspi_reg/_0760_ spi_reg/_0297_ spi_reg/_0298_ spi_reg/_0047_
+ vdd_d vss_d CKND2D1LVT
Xspi_reg/_0761_ net2852 spi_bits\[143\] spi_reg/_0299_ vdd_d
+ vss_d ND2D1LVT
Xspi_reg/_0762_ net2881 net2920 spi_bits\[142\] spi_reg/_0300_
+ vdd_d vss_d ND3D0LVT
Xspi_reg/_0763_ spi_reg/_0299_ spi_reg/_0300_ spi_reg/_0048_
+ vdd_d vss_d CKND2D1LVT
Xspi_reg/_0764_ net2852 spi_bits\[144\] spi_reg/_0301_ vdd_d
+ vss_d ND2D1LVT
Xspi_reg/_0765_ net2881 net2920 spi_bits\[143\] spi_reg/_0302_
+ vdd_d vss_d ND3D0LVT
Xspi_reg/_0766_ spi_reg/_0301_ spi_reg/_0302_ spi_reg/_0049_
+ vdd_d vss_d CKND2D1LVT
Xspi_reg/_0768_ net2852 spi_bits\[145\] spi_reg/_0304_ vdd_d
+ vss_d ND2D2LVT
Xspi_reg/_0771_ net2881 net2920 spi_bits\[144\] spi_reg/_0307_
+ vdd_d vss_d ND3D0LVT
Xspi_reg/_0772_ spi_reg/_0304_ spi_reg/_0307_ spi_reg/_0050_
+ vdd_d vss_d ND2D1LVT
Xspi_reg/_0773_ net2852 spi_bits\[146\] spi_reg/_0308_ vdd_d
+ vss_d ND2D2LVT
Xspi_reg/_0774_ net2881 net2920 spi_bits\[145\] spi_reg/_0309_
+ vdd_d vss_d ND3D0LVT
Xspi_reg/_0775_ spi_reg/_0308_ spi_reg/_0309_ spi_reg/_0051_
+ vdd_d vss_d ND2D1LVT
Xspi_reg/_0776_ net2852 spi_bits\[147\] spi_reg/_0310_ vdd_d
+ vss_d ND2D2LVT
Xspi_reg/_0777_ net2880 net2919 net3100 spi_reg/_0311_ vdd_d
+ vss_d ND3D0LVT
Xspi_reg/_0778_ spi_reg/_0310_ net2835 spi_reg/_0052_ vdd_d
+ vss_d ND2D1LVT
Xspi_reg/_0779_ net2844 spi_bits\[148\] spi_reg/_0312_ vdd_d
+ vss_d ND2D2LVT
Xspi_reg/_0780_ net2879 net2919 net3098 spi_reg/_0313_ vdd_d
+ vss_d ND3D1LVT
Xspi_reg/_0781_ spi_reg/_0312_ net2834 spi_reg/_0053_ vdd_d
+ vss_d ND2D1LVT
Xspi_reg/_0782_ net2842 spi_bits\[149\] spi_reg/_0314_ vdd_d
+ vss_d ND2D2LVT
Xspi_reg/_0783_ net3352 net2910 net3253 spi_reg/_0315_ vdd_d
+ vss_d ND3D0LVT
Xspi_reg/_0784_ spi_reg/_0314_ spi_reg/_0315_ spi_reg/_0054_
+ vdd_d vss_d ND2D1LVT
Xspi_reg/_0785_ net2859 spi_bits\[14\] spi_reg/_0316_ vdd_d
+ vss_d ND2D2LVT
Xspi_reg/_0786_ net2891 net2934 spi_bits\[13\] spi_reg/_0317_
+ vdd_d vss_d ND3D0LVT
Xspi_reg/_0787_ spi_reg/_0316_ spi_reg/_0317_ spi_reg/_0055_
+ vdd_d vss_d ND2D1LVT
Xspi_reg/_0788_ net2842 spi_bits\[150\] spi_reg/_0318_ vdd_d
+ vss_d ND2D1LVT
Xspi_reg/_0789_ net3352 net2909 spi_bits\[149\] spi_reg/_0319_
+ vdd_d vss_d ND3D0LVT
Xspi_reg/_0790_ spi_reg/_0318_ spi_reg/_0319_ spi_reg/_0056_
+ vdd_d vss_d CKND2D1LVT
Xspi_reg/_0791_ net2842 spi_bits\[151\] spi_reg/_0320_ vdd_d
+ vss_d ND2D1LVT
Xspi_reg/_0792_ net3352 net2909 spi_bits\[150\] spi_reg/_0321_
+ vdd_d vss_d ND3D0LVT
Xspi_reg/_0793_ spi_reg/_0320_ spi_reg/_0321_ spi_reg/_0057_
+ vdd_d vss_d CKND2D1LVT
Xspi_reg/_0794_ net2843 spi_bits\[152\] spi_reg/_0322_ vdd_d
+ vss_d ND2D1LVT
Xspi_reg/_0795_ net2906 net2910 spi_bits\[151\] spi_reg/_0323_
+ vdd_d vss_d ND3D0LVT
Xspi_reg/_0796_ spi_reg/_0322_ spi_reg/_0323_ spi_reg/_0058_
+ vdd_d vss_d CKND2D1LVT
Xspi_reg/_0797_ net2843 spi_bits\[153\] spi_reg/_0324_ vdd_d
+ vss_d ND2D1LVT