* CDL Netlist generated by OpenROAD

*.BUSDELIMITER [

.SUBCKT frida_core seq_init seq_samp seq_comp seq_logic spi_sclk spi_sdi spi_sdo spi_cs_b reset_b comp_out vin_p vin_n vdd_a vss_a vdd_d vss_d vdd_dac vss_dac
*.PININFO seq_init:I seq_samp:I seq_comp:I seq_logic:I spi_sclk:I spi_sdi:I spi_sdo:O spi_cs_b:I reset_b:I comp_out:O vin_p:I vin_n:I vdd_a:B vss_a:B vdd_d:B vss_d:B vdd_dac:B vss_dac:B

Xadc_array[0].adc_inst net2801 net2817 net2831 net2847 adc_comparator_out[0]
+ spi_bits[64] spi_bits[65] spi_bits[66] spi_bits[67]
+ spi_bits[68] spi_bits[69] spi_bits[70] net2475 net2478
+ net2480 net2481 net2484 net2486 net2488 net2490 net2492 net2495
+ net2496 net2498 net2501 net2502 net2505 net2507 net2509 net2510
+ net2511 net2512 net2513 net2514 net2515 net2516 net2518 net2520
+ net2521 net2522 net2523 net2525 net2526 net2528 net2529 net2531
+ net2535 net2537 net2539 net2541 net2543 net2545 net2548 net2550
+ net2551 net2554 net2558 net2559 net2561 net2571 net2573 net2574
+ net2590 net2603 net2615 net2627 net2458 net2470 net2471 net2474
+ net2483 net2504 net2517 net2532 net2555 net2638 vin_p vin_n
+ vdd_a vss_a vdd_d vss_d vdd_dac vss_dac adc
Xadc_array[10].adc_inst net2793 net2809 net2823 net2839
+ adc_comparator_out[10] net2597 net2596 net2595 net2594 net2593
+ net2592 net2589 net2477 net2478 net2479 net2482 net2485 net2487
+ net2489 net2491 net2493 net2494 net2497 net2499 net2500 net2503
+ net2506 net2508 net2509 net2510 net2511 net2512 net2513 net2514
+ net2515 net2516 net2519 net2520 net2521 net2522 net2523 net2524
+ net2527 net2528 net2529 net2530 net2535 net2537 net2539 net2542
+ net2544 net2546 net2547 net2549 net2552 net2553 net2557 net2560
+ net2562 net2572 net2573 net2574 net2591 net2602 net2615 net2627
+ net2458 net2470 net2472 net2474 net2483 net2504 net2517 net2533
+ net2556 net2638 vin_p vin_n vdd_a vss_a vdd_d vss_d vdd_dac
+ vss_dac adc
Xadc_array[11].adc_inst net2792 net2808 net2822 net2838
+ adc_comparator_out[11] net2588 net2587 net2586 net2585 net2584
+ net2583 net2582 net2477 net2478 net2479 net2482 net2485 net2487
+ net2489 net2491 net2493 net2494 net2497 net2499 net2500 net2503
+ net2506 net2508 net2509 net2510 net2511 net2512 net2513 net2514
+ net2515 net2516 net2519 net2520 net2521 net2522 net2523 net2524
+ net2527 net2528 net2529 net2530 net2536 net2538 net2540 net2542
+ net2544 net2546 net2547 net2549 net2552 net2553 net2557 net2560
+ net2562 net2572 net2573 net2574 net2591 net2602 net2615 net2627
+ net2458 net2470 net2472 net2474 net2483 net2504 net2517 net2533
+ net2556 net2638 vin_p vin_n vdd_a vss_a vdd_d vss_d vdd_dac
+ vss_dac adc
Xadc_array[12].adc_inst net2796 net2812 net2826 net2842
+ adc_comparator_out[12] net2579 spi_bits[149] spi_bits[150]
+ spi_bits[151] spi_bits[152] spi_bits[153] spi_bits[154]
+ net2475 net2478 net2480 net2481 net2484 net2486 net2488 net2490
+ net2492 net2495 net2496 net2498 net2501 net2502 net2505 net2507
+ net2509 net2510 net2511 net2512 net2513 net2514 net2515 net2516
+ net2518 net2520 net2521 net2522 net2523 net2525 net2526 net2528
+ net2529 net2531 net2535 net2537 net2539 net2541 net2543 net2545
+ net2548 net2550 net2551 net2554 net2558 net2559 net2561 net2571
+ net2573 net2574 net2590 net2603 net2615 net2627 net2458 net2470
+ net2471 net2474 net2483 net2504 net2517 net2532 net2555 net2638
+ vin_p vin_n vdd_a vss_a vdd_d vss_d vdd_dac vss_dac adc
Xadc_array[13].adc_inst net2796 net2812 net2826 net2842
+ adc_comparator_out[13] spi_bits[155] spi_bits[156] spi_bits[157]
+ spi_bits[158] spi_bits[159] spi_bits[160] spi_bits[161]
+ net2477 net2478 net2480 net2481 net2484 net2486 net2488 net2490
+ net2492 net2495 net2496 net2498 net2501 net2502 net2505 net2507
+ net2509 net2510 net2511 net2512 net2513 net2514 net2515 net2516
+ net2518 net2520 net2521 net2522 net2523 net2525 net2526 net2528
+ net2529 net2531 net2535 net2537 net2539 net2541 net2543 net2545
+ net2548 net2550 net2551 net2554 net2558 net2559 net2561 net2571
+ net2573 net2574 net2590 net2603 net2615 net2627 net2458 net2470
+ net2471 net2474 net2483 net2504 net2517 net2532 net2555 net2638
+ vin_p vin_n vdd_a vss_a vdd_d vss_d vdd_dac vss_dac adc
Xadc_array[14].adc_inst net2794 net2810 net2824 net2840
+ adc_comparator_out[14] spi_bits[162] spi_bits[163] spi_bits[164]
+ spi_bits[165] spi_bits[166] spi_bits[167] spi_bits[168]
+ net2477 net2478 net2479 net2482 net2485 net2487 net2489 net2491
+ net2493 net2494 net2497 net2499 net2500 net2503 net2506 net2508
+ net2509 net2510 net2511 net2512 net2513 net2514 net2515 net2516
+ net2519 net2520 net2521 net2522 net2523 net2524 net2527 net2528
+ net2529 net2530 net2535 net2537 net2539 net2542 net2544 net2546
+ net2547 net2549 net2552 net2553 net2557 net2560 net2562 net2572
+ net2573 net2574 net2591 net2602 net2615 net2627 net2458 net2470
+ net2472 net2474 net2483 net2504 net2517 net2533 net2556 net2638
+ vin_p vin_n vdd_a vss_a vdd_d vss_d vdd_dac vss_dac adc
Xadc_array[15].adc_inst net2792 net2808 net2822 net2838
+ adc_comparator_out[15] spi_bits[169] spi_bits[170] spi_bits[171]
+ spi_bits[172] spi_bits[173] spi_bits[174] spi_bits[175]
+ net2477 net2478 net2479 net2482 net2485 net2487 net2489 net2491
+ net2493 net2494 net2497 net2499 net2500 net2503 net2506 net2508
+ net2509 net2510 net2511 net2512 net2513 net2514 net2515 net2516
+ net2519 net2520 net2521 net2522 net2523 net2524 net2527 net2528
+ net2529 net2530 net2536 net2538 net2540 net2542 net2544 net2546
+ net2547 net2549 net2552 net2553 net2557 net2560 net2562 net2572
+ net2573 net2574 net2591 net2602 net2615 net2627 net2458 net2470
+ net2472 net2474 net2483 net2504 net2517 net2533 net2556 net2638
+ vin_p vin_n vdd_a vss_a vdd_d vss_d vdd_dac vss_dac adc
Xadc_array[1].adc_inst net2801 net2817 net2831 net2847 adc_comparator_out[1]
+ net2473 spi_bits[72] spi_bits[73] spi_bits[74] spi_bits[75]
+ spi_bits[76] spi_bits[77] net2477 net2478 net2480 net2481
+ net2484 net2486 net2488 net2490 net2492 net2495 net2496 net2498
+ net2501 net2502 net2505 net2507 net2509 net2510 net2511 net2512
+ net2513 net2514 net2515 net2516 net2518 net2520 net2521 net2522
+ net2523 net2525 net2526 net2528 net2529 net2531 net2535 net2537
+ net2539 net2541 net2543 net2545 net2548 net2550 net2551 net2554
+ net2558 net2559 net2561 net2571 net2573 net2574 net2590 net2603
+ net2615 net2627 net2458 net2470 net2471 net2474 net2483 net2504
+ net2517 net2532 net2555 net2641 vin_p vin_n vdd_a vss_a vdd_d
+ vss_d vdd_dac vss_dac adc
Xadc_array[2].adc_inst net2800 net2816 net2830 net2846 adc_comparator_out[2]
+ spi_bits[78] spi_bits[79] spi_bits[80] spi_bits[81]
+ spi_bits[82] spi_bits[83] spi_bits[84] net2477 net2478
+ net2479 net2482 net2485 net2487 net2489 net2491 net2493 net2494
+ net2497 net2499 net2500 net2503 net2506 net2508 net2509 net2510
+ net2511 net2512 net2513 net2514 net2515 net2516 net2519 net2520
+ net2521 net2522 net2523 net2524 net2527 net2528 net2529 net2530
+ net2535 net2537 net2539 net2542 net2544 net2546 net2547 net2549
+ net2552 net2553 net2557 net2560 net2562 net2572 net2573 net2574
+ net2591 net2602 net2615 net2627 net2458 net2470 net2472 net2474
+ net2483 net2504 net2517 net2533 net2556 net2641 vin_p vin_n
+ vdd_a vss_a vdd_d vss_d vdd_dac vss_dac adc
Xadc_array[3].adc_inst net2798 net2814 net2828 net2844 adc_comparator_out[3]
+ spi_bits[85] spi_bits[86] spi_bits[87] spi_bits[88]
+ spi_bits[89] spi_bits[90] spi_bits[91] net2477 net2478
+ net2479 net2482 net2485 net2487 net2489 net2491 net2493 net2494
+ net2497 net2499 net2500 net2503 net2506 net2508 net2509 net2510
+ net2511 net2512 net2513 net2514 net2515 net2516 net2519 net2520
+ net2521 net2522 net2523 net2524 net2527 net2528 net2529 net2530
+ net2536 net2538 net2540 net2542 net2544 net2546 net2547 net2549
+ net2552 net2553 net2557 net2560 net2562 net2572 net2573 net2574
+ net2591 net2602 net2615 net2627 net2458 net2470 net2472 net2474
+ net2483 net2504 net2517 net2533 net2556 net2641 vin_p vin_n
+ vdd_a vss_a vdd_d vss_d vdd_dac vss_dac adc
Xadc_array[4].adc_inst net2802 net2818 net2832 net2848 adc_comparator_out[4]
+ net2467 net2465 net2464 net2463 net2462 net2461 net2460 net2475
+ net2478 net2480 net2481 net2484 net2486 net2488 net2490 net2492
+ net2495 net2496 net2498 net2501 net2502 net2505 net2507 net2509
+ net2510 net2511 net2512 net2513 net2514 net2515 net2516 net2518
+ net2520 net2521 net2522 net2523 net2525 net2526 net2528 net2529
+ net2531 net2535 net2537 net2539 net2541 net2543 net2545 net2548
+ net2550 net2551 net2554 net2558 net2559 net2561 net2571 net2573
+ net2574 net2590 net2603 net2615 net2627 net2458 net2470 net2471
+ net2474 net2483 net2504 net2517 net2532 net2555 net2638 vin_p
+ vin_n vdd_a vss_a vdd_d vss_d vdd_dac vss_dac adc
Xadc_array[5].adc_inst net2802 net2818 net2832 net2848 adc_comparator_out[5]
+ net2459 net2637 net2636 net2635 net2634 net2633 net2632 net2477
+ net2478 net2480 net2481 net2484 net2486 net2488 net2490 net2492
+ net2495 net2496 net2498 net2501 net2502 net2505 net2507 net2509
+ net2510 net2511 net2512 net2513 net2514 net2515 net2516 net2518
+ net2520 net2521 net2522 net2523 net2525 net2526 net2528 net2529
+ net2531 net2535 net2537 net2539 net2541 net2543 net2545 net2548
+ net2550 net2551 net2554 net2558 net2559 net2561 net2571 net2573
+ net2574 net2590 net2603 net2615 net2627 net2458 net2470 net2471
+ net2474 net2483 net2504 net2517 net2532 net2555 net2638 vin_p
+ vin_n vdd_a vss_a vdd_d vss_d vdd_dac vss_dac adc
Xadc_array[6].adc_inst net2799 net2815 net2829 net2845 adc_comparator_out[6]
+ net2631 net2630 net2629 net2628 net2626 net2625 net2624 net2477
+ net2478 net2479 net2482 net2485 net2487 net2489 net2491 net2493
+ net2494 net2497 net2499 net2500 net2503 net2506 net2508 net2509
+ net2510 net2511 net2512 net2513 net2514 net2515 net2516 net2519
+ net2520 net2521 net2522 net2523 net2524 net2527 net2528 net2529
+ net2530 net2535 net2537 net2539 net2542 net2544 net2546 net2547
+ net2549 net2552 net2553 net2557 net2560 net2562 net2572 net2573
+ net2574 net2591 net2602 net2615 net2627 net2458 net2470 net2472
+ net2474 net2483 net2504 net2517 net2533 net2556 net2638 vin_p
+ vin_n vdd_a vss_a vdd_d vss_d vdd_dac vss_dac adc
Xadc_array[7].adc_inst net2798 net2814 net2828 net2844 adc_comparator_out[7]
+ net2623 net2622 net2621 net2620 net2619 net2618 net2617 net2477
+ net2478 net2479 net2482 net2485 net2487 net2489 net2491 net2493
+ net2494 net2497 net2499 net2500 net2503 net2506 net2508 net2509
+ net2510 net2511 net2512 net2513 net2514 net2515 net2516 net2519
+ net2520 net2521 net2522 net2523 net2524 net2527 net2528 net2529
+ net2530 net2536 net2538 net2540 net2542 net2544 net2546 net2547
+ net2549 net2552 net2553 net2557 net2560 net2562 net2572 net2573
+ net2574 net2591 net2602 net2615 net2627 net2458 net2470 net2472
+ net2474 net2483 net2504 net2517 net2533 net2556 net2638 vin_p
+ vin_n vdd_a vss_a vdd_d vss_d vdd_dac vss_dac adc
Xadc_array[8].adc_inst net2795 net2811 net2825 net2841 adc_comparator_out[8]
+ net2614 net2612 net2611 net2610 net2609 net2608 net2607 net2475
+ net2478 net2480 net2481 net2484 net2486 net2488 net2490 net2492
+ net2495 net2496 net2498 net2501 net2502 net2505 net2507 net2509
+ net2510 net2511 net2512 net2513 net2514 net2515 net2516 net2518
+ net2520 net2521 net2522 net2523 net2525 net2526 net2528 net2529
+ net2531 net2535 net2537 net2539 net2541 net2543 net2545 net2548
+ net2550 net2551 net2554 net2558 net2559 net2561 net2571 net2573
+ net2574 net2590 net2603 net2615 net2627 net2458 net2470 net2471
+ net2474 net2483 net2504 net2517 net2532 net2555 net2638 vin_p
+ vin_n vdd_a vss_a vdd_d vss_d vdd_dac vss_dac adc
Xadc_array[9].adc_inst net2795 net2811 net2825 net2841 adc_comparator_out[9]
+ net2606 net2605 net2604 net2601 net2600 net2599 net2598 net2477
+ net2478 net2480 net2481 net2484 net2486 net2488 net2490 net2492
+ net2495 net2496 net2498 net2501 net2502 net2505 net2507 net2509
+ net2510 net2511 net2512 net2513 net2514 net2515 net2516 net2518
+ net2520 net2521 net2522 net2523 net2525 net2526 net2528 net2529
+ net2531 net2535 net2537 net2539 net2541 net2543 net2545 net2548
+ net2550 net2551 net2554 net2558 net2559 net2561 net2571 net2573
+ net2574 net2590 net2603 net2615 net2627 net2458 net2470 net2471
+ net2474 net2483 net2504 net2517 net2532 net2555 net2638 vin_p
+ vin_n vdd_a vss_a vdd_d vss_d vdd_dac vss_dac adc
Xcomp_mux_43_ net2565 comp_mux_00_ vdd_d vss_d INVD3LVT
Xcomp_mux_44_ net2738 comp_mux_00_ comp_mux_01_ vdd_d vss_d
+ IND2D1LVT
Xinput1 reset_b net1 vdd_d vss_d BUFFD2LVT
Xcomp_mux_46_ net2734 net2565 comp_mux_03_ vdd_d vss_d IND2D1LVT
Xcomp_mux_47_ spi_bits[177] comp_mux_04_ vdd_d vss_d CKND2LVT
Xcomp_mux_48_ comp_mux_01_ comp_mux_03_ comp_mux_04_ comp_mux_05_
+ vdd_d vss_d ND3D1LVT
Xcomp_mux_49_ net2731 comp_mux_00_ comp_mux_06_ vdd_d vss_d
+ IND2D1LVT
Xcomp_mux_50_ net2727 comp_mux_07_ vdd_d vss_d CKND0LVT
Xcomp_mux_51_ net2675 net2563 comp_mux_08_ vdd_d vss_d ND2D1LVT
Xcomp_mux_52_ comp_mux_06_ comp_mux_08_ spi_bits[177]
+ comp_mux_09_ vdd_d vss_d ND3D1LVT
Xcomp_mux_53_ comp_mux_05_ comp_mux_09_ spi_bits[178]
+ comp_mux_10_ vdd_d vss_d ND3D1LVT
Xcomp_mux_54_ comp_mux_00_ net2714 comp_mux_11_ vdd_d vss_d
+ ND2D2LVT
Xcomp_mux_55_ net2565 net2710 comp_mux_12_ vdd_d vss_d ND2D2LVT
Xcomp_mux_56_ comp_mux_11_ comp_mux_12_ comp_mux_13_ vdd_d
+ vss_d ND2D2LVT
Xcomp_mux_57_ comp_mux_13_ comp_mux_04_ comp_mux_14_ vdd_d
+ vss_d ND2D2LVT
Xcomp_mux_58_ net2564 net2744 comp_mux_15_ vdd_d vss_d NR2D2LVT
Xcomp_mux_59_ comp_mux_15_ comp_mux_04_ comp_mux_16_ vdd_d
+ vss_d NR2XD1LVT
Xcomp_mux_60_ net2741 net2563 comp_mux_17_ vdd_d vss_d IND2D1LVT
Xcomp_mux_61_ comp_mux_16_ comp_mux_17_ comp_mux_18_ vdd_d
+ vss_d ND2D2LVT
Xcomp_mux_62_ spi_bits[178] comp_mux_19_ vdd_d vss_d CKND0LVT
Xcomp_mux_63_ comp_mux_14_ comp_mux_18_ comp_mux_19_ comp_mux_20_
+ vdd_d vss_d ND3D1LVT
Xcomp_mux_64_ comp_mux_10_ comp_mux_20_ spi_bits[179]
+ comp_mux_21_ vdd_d vss_d ND3D1LVT
Xcomp_mux_65_ adc_comparator_out[1] net2565 comp_mux_22_
+ vdd_d vss_d IND2D1LVT
Xcomp_mux_66_ adc_comparator_out[0] comp_mux_23_ vdd_d
+ vss_d CKND0LVT
Xcomp_mux_67_ net2674 comp_mux_00_ comp_mux_24_ vdd_d vss_d
+ ND2D1LVT
Xcomp_mux_68_ comp_mux_22_ comp_mux_24_ comp_mux_04_ comp_mux_25_
+ vdd_d vss_d ND3D1LVT
Xcomp_mux_69_ adc_comparator_out[2] comp_mux_26_ vdd_d
+ vss_d CKND0LVT
Xcomp_mux_70_ comp_mux_00_ comp_mux_26_ comp_mux_27_ vdd_d
+ vss_d CKND2D1LVT
Xcomp_mux_71_ adc_comparator_out[3] comp_mux_28_ vdd_d
+ vss_d CKND0LVT
Xcomp_mux_72_ net2673 net2564 comp_mux_29_ vdd_d vss_d CKND2D1LVT
Xcomp_mux_73_ comp_mux_27_ comp_mux_29_ spi_bits[177]
+ comp_mux_30_ vdd_d vss_d ND3D1LVT
Xcomp_mux_74_ comp_mux_25_ comp_mux_30_ comp_mux_19_ comp_mux_31_
+ vdd_d vss_d ND3D1LVT
Xcomp_mux_75_ comp_mux_00_ net2723 comp_mux_32_ vdd_d vss_d
+ ND2D2LVT
Xcomp_mux_76_ net2565 net2720 comp_mux_33_ vdd_d vss_d CKND2D2LVT
Xcomp_mux_77_ comp_mux_32_ comp_mux_33_ comp_mux_34_ vdd_d
+ vss_d ND2D1LVT
Xcomp_mux_78_ comp_mux_34_ comp_mux_04_ comp_mux_35_ vdd_d
+ vss_d CKND2D1LVT
Xcomp_mux_79_ net2564 net2718 comp_mux_36_ vdd_d vss_d NR2D2LVT
Xcomp_mux_80_ comp_mux_36_ comp_mux_04_ comp_mux_37_ vdd_d
+ vss_d NR2XD1LVT
Xcomp_mux_81_ net2874 net2564 comp_mux_38_ vdd_d vss_d IND2D1LVT
Xcomp_mux_82_ comp_mux_37_ comp_mux_38_ comp_mux_39_ vdd_d
+ vss_d ND2D1LVT
Xcomp_mux_83_ comp_mux_35_ comp_mux_39_ spi_bits[178]
+ comp_mux_40_ vdd_d vss_d ND3D2LVT
Xcomp_mux_84_ spi_bits[179] comp_mux_41_ vdd_d vss_d CKND0LVT
Xcomp_mux_85_ comp_mux_31_ comp_mux_40_ comp_mux_41_ comp_mux_42_
+ vdd_d vss_d ND3D2LVT
Xcomp_mux_86_ comp_mux_21_ comp_mux_42_ net4 vdd_d vss_d
+ ND2D1LVT
Xspi_reg_0_ net2 spi_reg_enable vdd_d vss_d CKND3LVT
Xclkbuf_0_seq_init net2790 clknet_0_seq_init vdd_d vss_d BUFFD16LVT
Xspi_reg_sdo_dff_dffe spi_bits[179] net2659 net2789 net2699
+ net5 _unconnected_0 vdd_d vss_d EDFCND2LVT
Xspi_reg_shift_stage[0].dff_inst_dffe net3 net2643 clknet_4_6_leaf_spi_sclk
+ net2702 spi_bits[0] _unconnected_1 vdd_d vss_d EDFCND2LVT
Xspi_reg_shift_stage[100].dff_inst_dffe spi_bits[99] net2645
+ clknet_4_0_leaf_spi_sclk net2701 spi_bits[100] _unconnected_2
+ vdd_d vss_d EDFCND2LVT
Xspi_reg_shift_stage[101].dff_inst_dffe spi_bits[100]
+ net2645 clknet_4_0_leaf_spi_sclk net2699 spi_bits[101]
+ _unconnected_3 vdd_d vss_d EDFCND2LVT
Xspi_reg_shift_stage[102].dff_inst_dffe spi_bits[101]
+ net2659 clknet_4_0_leaf_spi_sclk net2699 spi_bits[102]
+ _unconnected_4 vdd_d vss_d EDFCND2LVT
Xspi_reg_shift_stage[103].dff_inst_dffe spi_bits[102]
+ net2659 clknet_4_2_leaf_spi_sclk net2699 spi_bits[103]
+ _unconnected_5 vdd_d vss_d EDFCND2LVT
Xspi_reg_shift_stage[104].dff_inst_dffe spi_bits[103]
+ net2659 clknet_4_2_leaf_spi_sclk net2699 spi_bits[104]
+ _unconnected_6 vdd_d vss_d EDFCND2LVT
Xspi_reg_shift_stage[105].dff_inst_dffe spi_bits[104]
+ net2659 clknet_4_2_leaf_spi_sclk net2699 spi_bits[105]
+ _unconnected_7 vdd_d vss_d EDFCND2LVT
Xspi_reg_shift_stage[106].dff_inst_dffe spi_bits[105]
+ net2649 clknet_4_9_leaf_spi_sclk net2706 spi_bits[106]
+ _unconnected_8 vdd_d vss_d EDFCND2LVT
Xspi_reg_shift_stage[107].dff_inst_dffe spi_bits[106]
+ net2653 clknet_4_10_leaf_spi_sclk net2706 spi_bits[107]
+ _unconnected_9 vdd_d vss_d EDFCND2LVT
Xspi_reg_shift_stage[108].dff_inst_dffe spi_bits[107]
+ net2653 clknet_4_10_leaf_spi_sclk net2693 spi_bits[108]
+ _unconnected_10 vdd_d vss_d EDFCND2LVT
Xspi_reg_shift_stage[109].dff_inst_dffe spi_bits[108]
+ net2654 clknet_4_10_leaf_spi_sclk net2692 spi_bits[109]
+ _unconnected_11 vdd_d vss_d EDFCND2LVT
Xspi_reg_shift_stage[10].dff_inst_dffe spi_bits[9] net2653
+ clknet_4_10_leaf_spi_sclk net2692 spi_bits[10] _unconnected_12
+ vdd_d vss_d EDFCND2LVT
Xspi_reg_shift_stage[110].dff_inst_dffe spi_bits[109]
+ net2654 clknet_4_10_leaf_spi_sclk net2692 spi_bits[110]
+ _unconnected_13 vdd_d vss_d EDFCND2LVT
Xspi_reg_shift_stage[111].dff_inst_dffe spi_bits[110]
+ net2654 clknet_4_10_leaf_spi_sclk net2692 spi_bits[111]
+ _unconnected_14 vdd_d vss_d EDFCND2LVT
Xspi_reg_shift_stage[112].dff_inst_dffe spi_bits[111]
+ net2654 clknet_4_10_leaf_spi_sclk net2691 spi_bits[112]
+ _unconnected_15 vdd_d vss_d EDFCND2LVT
Xspi_reg_shift_stage[113].dff_inst_dffe spi_bits[112]
+ net2658 clknet_4_14_leaf_spi_sclk net2676 spi_bits[113]
+ _unconnected_16 vdd_d vss_d EDFCND2LVT
Xspi_reg_shift_stage[114].dff_inst_dffe spi_bits[113]
+ net2658 clknet_4_14_leaf_spi_sclk net2678 spi_bits[114]
+ _unconnected_17 vdd_d vss_d EDFCND2LVT
Xspi_reg_shift_stage[115].dff_inst_dffe spi_bits[114]
+ net2658 clknet_4_14_leaf_spi_sclk net2678 spi_bits[115]
+ _unconnected_18 vdd_d vss_d EDFCND2LVT
Xspi_reg_shift_stage[116].dff_inst_dffe spi_bits[115]
+ net2658 clknet_4_14_leaf_spi_sclk net2678 spi_bits[116]
+ _unconnected_19 vdd_d vss_d EDFCND2LVT
Xspi_reg_shift_stage[117].dff_inst_dffe spi_bits[116]
+ net2658 clknet_4_14_leaf_spi_sclk net2678 spi_bits[117]
+ _unconnected_20 vdd_d vss_d EDFCND2LVT
Xspi_reg_shift_stage[118].dff_inst_dffe spi_bits[117]
+ net2658 clknet_4_14_leaf_spi_sclk net2678 spi_bits[118]
+ _unconnected_21 vdd_d vss_d EDFCND2LVT
Xspi_reg_shift_stage[119].dff_inst_dffe spi_bits[118]
+ net2658 clknet_4_14_leaf_spi_sclk net2678 spi_bits[119]
+ _unconnected_22 vdd_d vss_d EDFCND2LVT
Xspi_reg_shift_stage[11].dff_inst_dffe spi_bits[10] net2653
+ clknet_4_10_leaf_spi_sclk net2693 spi_bits[11] _unconnected_23
+ vdd_d vss_d EDFCND2LVT
Xspi_reg_shift_stage[120].dff_inst_dffe net2861 net2648
+ clknet_4_8_leaf_spi_sclk net2695 spi_bits[120] _unconnected_24
+ vdd_d vss_d EDFCND2LVT
Xspi_reg_shift_stage[121].dff_inst_dffe net2756 net2642
+ clknet_4_4_leaf_spi_sclk net2703 spi_bits[121] _unconnected_25
+ vdd_d vss_d EDFCND2LVT
Xspi_reg_shift_stage[122].dff_inst_dffe spi_bits[121]
+ spi_reg_enable clknet_4_4_leaf_spi_sclk net2703 spi_bits[122]
+ _unconnected_26 vdd_d vss_d EDFCND2LVT
Xspi_reg_shift_stage[123].dff_inst_dffe spi_bits[122]
+ spi_reg_enable clknet_4_4_leaf_spi_sclk net2704 spi_bits[123]
+ _unconnected_27 vdd_d vss_d EDFCND2LVT
Xspi_reg_shift_stage[124].dff_inst_dffe spi_bits[123]
+ spi_reg_enable clknet_4_6_leaf_spi_sclk net2704 spi_bits[124]
+ _unconnected_28 vdd_d vss_d EDFCND2LVT
Xspi_reg_shift_stage[125].dff_inst_dffe spi_bits[124]
+ spi_reg_enable clknet_4_6_leaf_spi_sclk net2704 spi_bits[125]
+ _unconnected_29 vdd_d vss_d EDFCND2LVT
Xspi_reg_shift_stage[126].dff_inst_dffe spi_bits[125]
+ net2660 clknet_4_6_leaf_spi_sclk net2704 spi_bits[126]
+ _unconnected_30 vdd_d vss_d EDFCND2LVT
Xspi_reg_shift_stage[127].dff_inst_dffe spi_bits[126]
+ net2643 clknet_4_6_leaf_spi_sclk net2702 spi_bits[127]
+ _unconnected_31 vdd_d vss_d EDFCND2LVT
Xspi_reg_shift_stage[128].dff_inst_dffe spi_bits[127]
+ net2644 clknet_4_1_leaf_spi_sclk net2705 spi_bits[128]
+ _unconnected_32 vdd_d vss_d EDFCND2LVT
Xspi_reg_shift_stage[129].dff_inst_dffe spi_bits[128]
+ net2644 clknet_4_1_leaf_spi_sclk net2705 spi_bits[129]
+ _unconnected_33 vdd_d vss_d EDFCND2LVT
Xspi_reg_shift_stage[12].dff_inst_dffe spi_bits[11] net2653
+ clknet_4_10_leaf_spi_sclk net2706 spi_bits[12] _unconnected_34
+ vdd_d vss_d EDFCND2LVT
Xspi_reg_shift_stage[130].dff_inst_dffe spi_bits[129]
+ net2646 clknet_4_1_leaf_spi_sclk net2705 spi_bits[130]
+ _unconnected_35 vdd_d vss_d EDFCND2LVT
Xspi_reg_shift_stage[131].dff_inst_dffe spi_bits[130]
+ net2646 clknet_4_1_leaf_spi_sclk net2705 spi_bits[131]
+ _unconnected_36 vdd_d vss_d EDFCND2LVT
Xspi_reg_shift_stage[132].dff_inst_dffe spi_bits[131]
+ net2646 clknet_4_2_leaf_spi_sclk net2697 spi_bits[132]
+ _unconnected_37 vdd_d vss_d EDFCND2LVT
Xspi_reg_shift_stage[133].dff_inst_dffe spi_bits[132]
+ net2646 clknet_4_3_leaf_spi_sclk net2697 spi_bits[133]
+ _unconnected_38 vdd_d vss_d EDFCND2LVT
Xspi_reg_shift_stage[134].dff_inst_dffe spi_bits[133]
+ net2649 clknet_4_11_leaf_spi_sclk net2707 spi_bits[134]
+ _unconnected_39 vdd_d vss_d EDFCND2LVT
Xspi_reg_shift_stage[135].dff_inst_dffe spi_bits[134]
+ net2650 clknet_4_11_leaf_spi_sclk net2707 spi_bits[135]
+ _unconnected_40 vdd_d vss_d EDFCND2LVT
Xspi_reg_shift_stage[136].dff_inst_dffe spi_bits[135]
+ net2650 clknet_4_11_leaf_spi_sclk net2707 spi_bits[136]
+ _unconnected_41 vdd_d vss_d EDFCND2LVT
Xspi_reg_shift_stage[137].dff_inst_dffe spi_bits[136]
+ net2652 clknet_4_11_leaf_spi_sclk net2691 spi_bits[137]
+ _unconnected_42 vdd_d vss_d EDFCND2LVT
Xspi_reg_shift_stage[138].dff_inst_dffe spi_bits[137]
+ net2652 clknet_4_11_leaf_spi_sclk net2691 spi_bits[138]
+ _unconnected_43 vdd_d vss_d EDFCND2LVT
Xspi_reg_shift_stage[139].dff_inst_dffe spi_bits[138]
+ net2654 clknet_4_11_leaf_spi_sclk net2691 spi_bits[139]
+ _unconnected_44 vdd_d vss_d EDFCND2LVT
Xspi_reg_shift_stage[13].dff_inst_dffe spi_bits[12] net2653
+ clknet_4_10_leaf_spi_sclk net2706 spi_bits[13] _unconnected_45
+ vdd_d vss_d EDFCND2LVT
Xspi_reg_shift_stage[140].dff_inst_dffe spi_bits[139]
+ net2654 clknet_4_13_leaf_spi_sclk net2690 spi_bits[140]
+ _unconnected_46 vdd_d vss_d EDFCND2LVT
Xspi_reg_shift_stage[141].dff_inst_dffe spi_bits[140]
+ net2655 clknet_4_13_leaf_spi_sclk net2676 spi_bits[141]
+ _unconnected_47 vdd_d vss_d EDFCND2LVT
Xspi_reg_shift_stage[142].dff_inst_dffe spi_bits[141]
+ net2656 clknet_4_12_leaf_spi_sclk net1 spi_bits[142] _unconnected_48
+ vdd_d vss_d EDFCND2LVT
Xspi_reg_shift_stage[143].dff_inst_dffe spi_bits[142]
+ net2656 clknet_4_12_leaf_spi_sclk net1 spi_bits[143] _unconnected_49
+ vdd_d vss_d EDFCND2LVT
Xspi_reg_shift_stage[144].dff_inst_dffe spi_bits[143]
+ net2656 clknet_4_14_leaf_spi_sclk net1 spi_bits[144] _unconnected_50
+ vdd_d vss_d EDFCND2LVT
Xspi_reg_shift_stage[145].dff_inst_dffe spi_bits[144]
+ net2656 clknet_4_15_leaf_spi_sclk net1 spi_bits[145] _unconnected_51
+ vdd_d vss_d EDFCND2LVT
Xspi_reg_shift_stage[146].dff_inst_dffe spi_bits[145]
+ net2656 clknet_4_15_leaf_spi_sclk net1 spi_bits[146] _unconnected_52
+ vdd_d vss_d EDFCND2LVT
Xspi_reg_shift_stage[147].dff_inst_dffe spi_bits[146]
+ net2656 clknet_4_14_leaf_spi_sclk net2676 spi_bits[147]
+ _unconnected_53 vdd_d vss_d EDFCND2LVT
Xspi_reg_shift_stage[148].dff_inst_dffe net2581 net2647
+ clknet_4_2_leaf_spi_sclk net2696 spi_bits[148] _unconnected_54
+ vdd_d vss_d EDFCND2LVT
Xspi_reg_shift_stage[149].dff_inst_dffe net2578 net2664
+ clknet_4_4_leaf_spi_sclk net2687 spi_bits[149] _unconnected_55
+ vdd_d vss_d EDFCND2LVT
Xspi_reg_shift_stage[14].dff_inst_dffe spi_bits[13] net2653
+ clknet_4_10_leaf_spi_sclk net2706 spi_bits[14] _unconnected_56
+ vdd_d vss_d EDFCND2LVT
Xspi_reg_shift_stage[150].dff_inst_dffe net2872 net2666
+ clknet_4_4_leaf_spi_sclk net2688 spi_bits[150] _unconnected_57
+ vdd_d vss_d EDFCND2LVT
Xspi_reg_shift_stage[151].dff_inst_dffe net2765 net2666
+ clknet_4_4_leaf_spi_sclk net2688 spi_bits[151] _unconnected_58
+ vdd_d vss_d EDFCND2LVT
Xspi_reg_shift_stage[152].dff_inst_dffe net2764 net2859
+ net2852 net2856 spi_bits[152] _unconnected_59 vdd_d vss_d
+ EDFCND2LVT
Xspi_reg_shift_stage[153].dff_inst_dffe spi_bits[152]
+ net2859 net2852 net2856 spi_bits[153] _unconnected_60 vdd_d
+ vss_d EDFCND2LVT
Xspi_reg_shift_stage[154].dff_inst_dffe spi_bits[153]
+ net2859 net2852 net2856 spi_bits[154] _unconnected_61 vdd_d
+ vss_d EDFCND2LVT
Xspi_reg_shift_stage[155].dff_inst_dffe net2762 net2665
+ clknet_4_4_leaf_spi_sclk net2747 spi_bits[155] _unconnected_62
+ vdd_d vss_d EDFCND2LVT
Xspi_reg_shift_stage[156].dff_inst_dffe net2761 net2665
+ clknet_4_7_leaf_spi_sclk net2747 spi_bits[156] _unconnected_63
+ vdd_d vss_d EDFCND2LVT
Xspi_reg_shift_stage[157].dff_inst_dffe spi_bits[156]
+ net2667 clknet_4_0_leaf_spi_sclk net2686 spi_bits[157]
+ _unconnected_64 vdd_d vss_d EDFCND2LVT
Xspi_reg_shift_stage[158].dff_inst_dffe net2760 net2753
+ clknet_4_7_leaf_spi_sclk net2748 spi_bits[158] _unconnected_65
+ vdd_d vss_d EDFCND2LVT
Xspi_reg_shift_stage[159].dff_inst_dffe spi_bits[158]
+ net2858 clknet_4_7_leaf_spi_sclk net2748 spi_bits[159]
+ _unconnected_66 vdd_d vss_d EDFCND2LVT
Xspi_reg_shift_stage[15].dff_inst_dffe spi_bits[14] net2653
+ clknet_4_10_leaf_spi_sclk net2706 spi_bits[15] _unconnected_67
+ vdd_d vss_d EDFCND2LVT
Xspi_reg_shift_stage[160].dff_inst_dffe spi_bits[159]
+ net2858 clknet_4_7_leaf_spi_sclk net2748 spi_bits[160]
+ _unconnected_68 vdd_d vss_d EDFCND2LVT
Xspi_reg_shift_stage[161].dff_inst_dffe net2867 net2858
+ clknet_4_3_leaf_spi_sclk net2748 spi_bits[161] _unconnected_69
+ vdd_d vss_d EDFCND2LVT
Xspi_reg_shift_stage[162].dff_inst_dffe spi_bits[161]
+ net2668 clknet_4_9_leaf_spi_sclk net2750 spi_bits[162]
+ _unconnected_70 vdd_d vss_d EDFCND2LVT
Xspi_reg_shift_stage[163].dff_inst_dffe spi_bits[162]
+ net2668 clknet_4_9_leaf_spi_sclk net2751 spi_bits[163]
+ _unconnected_71 vdd_d vss_d EDFCND2LVT
Xspi_reg_shift_stage[164].dff_inst_dffe spi_bits[163]
+ net2669 clknet_4_11_leaf_spi_sclk net2751 spi_bits[164]
+ _unconnected_72 vdd_d vss_d EDFCND2LVT
Xspi_reg_shift_stage[165].dff_inst_dffe net2866 net2669
+ clknet_4_12_leaf_spi_sclk net2751 spi_bits[165] _unconnected_73
+ vdd_d vss_d EDFCND2LVT
Xspi_reg_shift_stage[166].dff_inst_dffe spi_bits[165]
+ net2749 clknet_4_10_leaf_spi_sclk net2683 spi_bits[166]
+ _unconnected_74 vdd_d vss_d EDFCND2LVT
Xspi_reg_shift_stage[167].dff_inst_dffe spi_bits[166]
+ net2749 clknet_4_13_leaf_spi_sclk net2683 spi_bits[167]
+ _unconnected_75 vdd_d vss_d EDFCND2LVT
Xspi_reg_shift_stage[168].dff_inst_dffe spi_bits[167]
+ net2749 clknet_4_13_leaf_spi_sclk net2683 spi_bits[168]
+ _unconnected_76 vdd_d vss_d EDFCND2LVT
Xspi_reg_shift_stage[169].dff_inst_dffe spi_bits[168]
+ net2670 clknet_4_14_leaf_spi_sclk net2682 spi_bits[169]
+ _unconnected_77 vdd_d vss_d EDFCND2LVT
Xspi_reg_shift_stage[16].dff_inst_dffe spi_bits[15] net2654
+ clknet_4_11_leaf_spi_sclk net2691 spi_bits[16] _unconnected_78
+ vdd_d vss_d EDFCND2LVT
Xspi_reg_shift_stage[170].dff_inst_dffe spi_bits[169]
+ net2670 clknet_4_14_leaf_spi_sclk net2682 spi_bits[170]
+ _unconnected_79 vdd_d vss_d EDFCND2LVT
Xspi_reg_shift_stage[171].dff_inst_dffe net2759 net2857
+ clknet_4_15_leaf_spi_sclk net2860 spi_bits[171] _unconnected_80
+ vdd_d vss_d EDFCND2LVT
Xspi_reg_shift_stage[172].dff_inst_dffe spi_bits[171]
+ net2857 clknet_4_15_leaf_spi_sclk net2860 spi_bits[172]
+ _unconnected_81 vdd_d vss_d EDFCND2LVT
Xspi_reg_shift_stage[173].dff_inst_dffe spi_bits[172]
+ net2857 clknet_4_15_leaf_spi_sclk net2860 spi_bits[173]
+ _unconnected_82 vdd_d vss_d EDFCND2LVT
Xspi_reg_shift_stage[174].dff_inst_dffe net2864 net2671
+ clknet_4_14_leaf_spi_sclk net2689 spi_bits[174] _unconnected_83
+ vdd_d vss_d EDFCND2LVT
Xspi_reg_shift_stage[175].dff_inst_dffe spi_bits[174]
+ net2671 clknet_4_14_leaf_spi_sclk net2682 spi_bits[175]
+ _unconnected_84 vdd_d vss_d EDFCND2LVT
Xspi_reg_shift_stage[176].dff_inst_dffe net2570 net2655
+ clknet_4_14_leaf_spi_sclk net2676 spi_bits[176] _unconnected_85
+ vdd_d vss_d EDFCND2LVT
Xspi_reg_shift_stage[177].dff_inst_dffe net2566 net2648
+ clknet_4_8_leaf_spi_sclk net2695 spi_bits[177] _unconnected_86
+ vdd_d vss_d EDFCND2LVT
Xspi_reg_shift_stage[178].dff_inst_dffe spi_bits[177]
+ net2648 clknet_4_8_leaf_spi_sclk net2695 spi_bits[178]
+ _unconnected_87 vdd_d vss_d EDFCND2LVT
Xspi_reg_shift_stage[179].dff_inst_dffe spi_bits[178]
+ net2648 clknet_4_8_leaf_spi_sclk net2695 spi_bits[179]
+ _unconnected_88 vdd_d vss_d EDFCND2LVT
Xspi_reg_shift_stage[17].dff_inst_dffe spi_bits[16] net2652
+ clknet_4_13_leaf_spi_sclk net2693 spi_bits[17] _unconnected_89
+ vdd_d vss_d EDFCND2LVT
Xspi_reg_shift_stage[18].dff_inst_dffe spi_bits[17] net2651
+ clknet_4_9_leaf_spi_sclk net2693 spi_bits[18] _unconnected_90
+ vdd_d vss_d EDFCND2LVT
Xspi_reg_shift_stage[19].dff_inst_dffe spi_bits[18] net2651
+ clknet_4_9_leaf_spi_sclk net2694 spi_bits[19] _unconnected_91
+ vdd_d vss_d EDFCND2LVT
Xspi_reg_shift_stage[1].dff_inst_dffe net2640 net2649 clknet_4_8_leaf_spi_sclk
+ net2695 spi_bits[1] _unconnected_92 vdd_d vss_d EDFCND2LVT
Xspi_reg_shift_stage[20].dff_inst_dffe spi_bits[19] net2651
+ clknet_4_9_leaf_spi_sclk net2694 spi_bits[20] _unconnected_93
+ vdd_d vss_d EDFCND2LVT
Xspi_reg_shift_stage[21].dff_inst_dffe spi_bits[20] net2651
+ clknet_4_11_leaf_spi_sclk net2694 spi_bits[21] _unconnected_94
+ vdd_d vss_d EDFCND2LVT
Xspi_reg_shift_stage[22].dff_inst_dffe spi_bits[21] net2652
+ clknet_4_13_leaf_spi_sclk net2693 spi_bits[22] _unconnected_95