* CDL Netlist generated by OpenROAD

*.BUSDELIMITER [

.SUBCKT frida_core seq_init seq_samp seq_comp seq_logic spi_sclk spi_sdi spi_sdo spi_cs_b reset_b comp_out vin_p vin_n vdd_a vss_a vdd_d vss_d vdd_dac vss_dac
*.PININFO seq_init:I seq_samp:I seq_comp:I seq_logic:I spi_sclk:I spi_sdi:I spi_sdo:O spi_cs_b:I reset_b:I comp_out:O vin_p:I vin_n:I vdd_a:B vss_a:B vdd_d:B vss_d:B vdd_dac:B vss_dac:B

Xadc_array[0].adc_inst net3037 net3047 net3067 net3083 adc_comparator_out[0]
+ spi_bits[64] spi_bits[65] spi_bits[66] spi_bits[67]
+ spi_bits[68] spi_bits[69] spi_bits[70] net2634 net2637
+ net2638 net2639 net2646 net2648 net2650 net2652 net2653 net2654
+ net2656 net2658 net2660 net2662 net2667 net2669 net2671 net2672
+ net2673 net2674 net2675 net2676 net2677 net2679 net2684 net2686
+ net2687 net2688 net2689 net2690 net2691 net2693 net2695 net2697
+ net2700 net2702 net2704 net2707 net2709 net2711 net2713 net2715
+ net2717 net2719 net2723 net2725 net2727 net2738 net2744 net2746
+ net2761 net2772 net2786 net2800 net2614 net2626 net2629 net2632
+ net2642 net2665 net2682 net2698 net2721 spi_bits[0] vin_p
+ vin_n vdd_a vss_a vdd_d vss_d vdd_dac vss_dac adc
Xadc_array[10].adc_inst net3029 net3051 net3059 net3075
+ adc_comparator_out[10] net2767 net2766 net2765 net2764 net2763
+ net2762 net2760 net2636 net2637 net2638 net2640 net2647 net2649
+ net2651 net2652 net2653 net2655 net2657 net2659 net2661 net2663
+ net2668 net2670 net2671 net2672 net2673 net2674 net2675 net2676
+ net2677 net2680 net2685 net2686 net2687 net2688 net2689 net2690
+ net2692 net2694 net2696 net2697 net2700 net2702 net2705 net2708
+ net2710 net2712 net2714 net2716 net2718 net2720 net2724 net2726
+ net2728 net2739 net2744 net2746 net2761 net2773 net2786 net2800
+ net2614 net2626 net2630 net2633 net2644 net2665 net2682 net2699
+ net2722 net2813 vin_p vin_n vdd_a vss_a vdd_d vss_d vdd_dac
+ vss_dac adc
Xadc_array[11].adc_inst net3028 net3050 net3058 net3074
+ adc_comparator_out[11] net2758 net2757 net2756 net2755 net2754
+ net2753 net2752 net2636 net2637 net2638 net2640 net2647 net2649
+ net2651 net2652 net2653 net2655 net2657 net2659 net2661 net2663
+ net2668 net2670 net2671 net2672 net2673 net2674 net2675 net2676
+ net2677 net2680 net2685 net2686 net2687 net2688 net2689 net2690
+ net2692 net2694 net2696 net2697 net2701 net2703 net2706 net2708
+ net2710 net2712 net2714 net2716 net2718 net2720 net2724 net2726
+ net2728 net2739 net2744 net2746 net2761 net2773 net2787 net2801
+ net2615 net2627 net2630 net2633 net2645 net2666 net2683 net2699
+ net2722 net2813 vin_p vin_n vdd_a vss_a vdd_d vss_d vdd_dac
+ vss_dac adc
Xadc_array[12].adc_inst net3032 net3054 net3062 net3078
+ adc_comparator_out[12] net2747 net3002 net2999 net2996 net2994
+ net2992 net2990 net2634 net2637 net2638 net2639 net2646 net2648
+ net2650 net2652 net2653 net2654 net2656 net2658 net2660 net2662
+ net2667 net2669 net2671 net2672 net2673 net2674 net2675 net2676
+ net2677 net2679 net2684 net2686 net2687 net2688 net2689 net2690
+ net2691 net2693 net2695 net2697 net2700 net2702 net2705 net2707
+ net2709 net2711 net2713 net2715 net2717 net2719 net2723 net2725
+ net2727 net2738 net2744 net2746 net2761 net2772 net2786 net2800
+ net2614 net2626 net2629 net2632 net2644 net2665 net2682 net2698
+ net2721 net2813 vin_p vin_n vdd_a vss_a vdd_d vss_d vdd_dac
+ vss_dac adc
Xadc_array[13].adc_inst net3032 net3054 net3062 net3078
+ adc_comparator_out[13] net2745 net2985 net2982 net2980 net2977
+ net2951 net2742 net2636 net2637 net2638 net2639 net2646 net2648
+ net2650 net2652 net2653 net2654 net2656 net2658 net2660 net2662
+ net2667 net2669 net2671 net2672 net2673 net2674 net2675 net2676
+ net2677 net2679 net2684 net2686 net2687 net2688 net2689 net2690
+ net2691 net2693 net2695 net2697 net2700 net2702 net2705 net2707
+ net2709 net2711 net2713 net2715 net2717 net2719 net2723 net2725
+ net2727 net2738 net2744 net2746 net2761 net2772 net2786 net2800
+ net2614 net2626 net2629 net2632 net2644 net2665 net2682 net2698
+ net2721 net2813 vin_p vin_n vdd_a vss_a vdd_d vss_d vdd_dac
+ vss_dac adc
Xadc_array[14].adc_inst net3030 net3052 net3060 net3076
+ adc_comparator_out[14] net2741 net2971 net2968 net2965 net2953
+ net2963 net2961 net2636 net2637 net2638 net2640 net2647 net2649
+ net2651 net2652 net2653 net2655 net2657 net2659 net2661 net2663
+ net2668 net2670 net2671 net2672 net2673 net2674 net2675 net2676
+ net2677 net2680 net2685 net2686 net2687 net2688 net2689 net2690
+ net2692 net2694 net2696 net2697 net2700 net2702 net2705 net2708
+ net2710 net2712 net2714 net2716 net2718 net2720 net2724 net2726
+ net2728 net2739 net2744 net2746 net2761 net2773 net2786 net2800
+ net2614 net2626 net2630 net2633 net2644 net2665 net2682 net2699
+ net2722 net2813 vin_p vin_n vdd_a vss_a vdd_d vss_d vdd_dac
+ vss_dac adc
Xadc_array[15].adc_inst net3028 net3050 net3058 net3074
+ adc_comparator_out[15] net2959 net2957 net2954 net2737 net2736
+ net2735 net2734 net2636 net2637 net2638 net2640 net2647 net2649
+ net2651 net2652 net2653 net2655 net2657 net2659 net2661 net2663
+ net2668 net2670 net2671 net2672 net2673 net2674 net2675 net2676
+ net2677 net2680 net2685 net2686 net2687 net2688 net2689 net2690
+ net2692 net2694 net2696 net2697 net2701 net2703 net2706 net2708
+ net2710 net2712 net2714 net2716 net2718 net2720 net2724 net2726
+ net2728 net2739 net2744 net2746 net2761 net2773 net2787 net2801
+ net2615 net2627 net2630 net2633 net2645 net2666 net2683 net2699
+ net2722 net2813 vin_p vin_n vdd_a vss_a vdd_d vss_d vdd_dac
+ vss_dac adc
Xadc_array[1].adc_inst net3037 net3047 net3067 net3083 adc_comparator_out[1]
+ net2631 spi_bits[72] spi_bits[73] spi_bits[74] spi_bits[75]
+ spi_bits[76] spi_bits[77] net2636 net2637 net2638 net2639
+ net2646 net2648 net2650 net2652 net2653 net2654 net2656 net2658
+ net2660 net2662 net2667 net2669 net2671 net2672 net2673 net2674
+ net2675 net2676 net2677 net2679 net2684 net2686 net2687 net2688
+ net2689 net2690 net2691 net2693 net2695 net2697 net2700 net2702
+ net2704 net2707 net2709 net2711 net2713 net2715 net2717 net2719
+ net2723 net2725 net2727 net2738 net2744 net2746 net2761 net2772
+ net2786 net2800 net2614 net2626 net2629 net2632 net2642 net2665
+ net2682 net2698 net2721 net2815 vin_p vin_n vdd_a vss_a vdd_d
+ vss_d vdd_dac vss_dac adc
Xadc_array[2].adc_inst net3036 net3046 net3066 net3082 adc_comparator_out[2]
+ spi_bits[78] spi_bits[79] spi_bits[80] spi_bits[81]
+ spi_bits[82] spi_bits[83] spi_bits[84] net2636 net2637
+ net2638 net2640 net2647 net2649 net2651 net2652 net2653 net2655
+ net2657 net2659 net2661 net2663 net2668 net2670 net2671 net2672
+ net2673 net2674 net2675 net2676 net2677 net2680 net2685 net2686
+ net2687 net2688 net2689 net2690 net2692 net2694 net2696 net2697
+ net2700 net2702 spi_bits[27] net2708 net2710 net2712 net2714
+ net2716 net2718 net2720 net2724 net2726 net2728 net2739 net2744
+ net2746 net2761 net2773 net2786 net2800 net2614 net2626 net2630
+ net2633 net2644 net2665 net2682 net2699 net2722 net2815 vin_p
+ vin_n vdd_a vss_a vdd_d vss_d vdd_dac vss_dac adc
Xadc_array[3].adc_inst net3034 net3044 net3064 net3080 adc_comparator_out[3]
+ spi_bits[85] spi_bits[86] spi_bits[87] spi_bits[88]
+ spi_bits[89] spi_bits[90] spi_bits[91] net2636 net2637
+ net2638 net2640 net2647 net2649 net2651 net2652 net2653 net2655
+ net2657 net2659 net2661 net2663 net2668 net2670 net2671 net2672
+ net2673 net2674 net2675 net2676 net2677 net2680 net2685 net2686
+ net2687 net2688 net2689 net2690 net2692 net2694 net2696 net2697
+ net2701 net2703 net2706 net2708 net2710 net2712 net2714 net2716
+ net2718 net2720 net2724 net2726 net2728 net2739 net2744 net2746
+ net2761 net2773 net2787 net2801 net2615 net2627 net2630 net2633
+ net2645 net2666 net2683 net2699 net2722 net2815 vin_p vin_n
+ vdd_a vss_a vdd_d vss_d vdd_dac vss_dac adc
Xadc_array[4].adc_inst net3038 net3048 net3068 net3084 adc_comparator_out[4]
+ net2623 net2622 net2621 net2620 net2619 net2618 net2617 net2634
+ net2637 net2638 net2639 net2646 net2648 net2650 net2652 net2653
+ net2654 net2656 net2658 net2660 net2662 net2667 net2669 net2671
+ net2672 net2673 net2674 net2675 net2676 net2677 net2679 net2684
+ net2686 net2687 net2688 net2689 net2690 net2691 net2693 net2695
+ net2697 net2700 net2702 net2705 net2707 net2709 net2711 net2713
+ net2715 net2717 net2719 net2723 net2725 net2727 net2738 net2744
+ net2746 net2761 net2772 net2786 net2800 net2614 net2626 net2629
+ net2632 net2644 net2665 net2682 net2698 net2721 net2813 vin_p
+ vin_n vdd_a vss_a vdd_d vss_d vdd_dac vss_dac adc
Xadc_array[5].adc_inst net3038 net3048 net3068 net3084 adc_comparator_out[5]
+ net2616 net2811 net2810 net2809 net2808 net2807 net2806 net2636
+ net2637 net2638 net2639 net2646 net2648 net2650 net2652 net2653
+ net2654 net2656 net2658 net2660 net2662 net2667 net2669 net2671
+ net2672 net2673 net2674 net2675 net2676 net2677 net2679 net2684
+ net2686 net2687 net2688 net2689 net2690 net2691 net2693 net2695
+ net2697 net2700 net2702 net2705 net2707 net2709 net2711 net2713
+ net2715 net2717 net2719 net2723 net2725 net2727 net2738 net2744
+ net2746 net2761 net2772 net2786 net2800 net2614 net2626 net2629
+ net2632 net2644 net2665 net2682 net2698 net2721 net2813 vin_p
+ vin_n vdd_a vss_a vdd_d vss_d vdd_dac vss_dac adc
Xadc_array[6].adc_inst net3035 net3045 net3065 net3081 adc_comparator_out[6]
+ net2805 net2804 net2803 net2802 net2798 net2797 net2796 net2636
+ net2637 net2638 net2640 net2647 net2649 net2651 net2652 net2653
+ net2655 net2657 net2659 net2661 net2663 net2668 net2670 net2671
+ net2672 net2673 net2674 net2675 net2676 net2677 net2680 net2685
+ net2686 net2687 net2688 net2689 net2690 net2692 net2694 net2696
+ net2697 net2700 net2702 net2705 net2708 net2710 net2712 net2714
+ net2716 net2718 net2720 net2724 net2726 net2728 net2739 net2744
+ net2746 net2761 net2773 net2786 net2800 net2614 net2626 net2630
+ net2633 net2644 net2665 net2682 net2699 net2722 net2813 vin_p
+ vin_n vdd_a vss_a vdd_d vss_d vdd_dac vss_dac adc
Xadc_array[7].adc_inst net3034 net3044 net3064 net3080 adc_comparator_out[7]
+ net2795 net2794 net2793 net2792 net2791 net2790 net2789 net2636
+ net2637 net2638 net2640 net2647 net2649 net2651 net2652 net2653
+ net2655 net2657 net2659 net2661 net2663 net2668 net2670 net2671
+ net2672 net2673 net2674 net2675 net2676 net2677 net2680 net2685
+ net2686 net2687 net2688 net2689 net2690 net2692 net2694 net2696
+ net2697 net2701 net2703 net2706 net2708 net2710 net2712 net2714
+ net2716 net2718 net2720 net2724 net2726 net2728 net2739 net2744
+ net2746 net2761 net2773 net2787 net2801 net2615 net2627 net2630
+ net2633 net2645 net2666 net2683 net2699 net2722 net2813 vin_p
+ vin_n vdd_a vss_a vdd_d vss_d vdd_dac vss_dac adc
Xadc_array[8].adc_inst net3031 net3053 net3061 net3077 adc_comparator_out[8]
+ net2784 net2782 net2781 net2780 net2779 net2778 net2777 net2634
+ net2637 net2638 net2639 net2646 net2648 net2650 net2652 net2653
+ net2654 net2656 net2658 net2660 net2662 net2667 net2669 net2671
+ net2672 net2673 net2674 net2675 net2676 net2677 net2679 net2684
+ net2686 net2687 net2688 net2689 net2690 net2691 net2693 net2695
+ net2697 net2700 net2702 net2705 net2707 net2709 net2711 net2713
+ net2715 net2717 net2719 net2723 net2725 net2727 net2738 net2744
+ net2746 net2761 net2772 net2786 net2800 net2614 net2626 net2629
+ net2632 net2644 net2665 net2682 net2698 net2721 net2813 vin_p
+ vin_n vdd_a vss_a vdd_d vss_d vdd_dac vss_dac adc
Xadc_array[9].adc_inst net3031 net3053 net3061 net3077 adc_comparator_out[9]
+ net2776 net2775 net2774 net2771 net2770 net2769 net2768 net2636
+ net2637 net2638 net2639 net2646 net2648 net2650 net2652 net2653
+ net2654 net2656 net2658 net2660 net2662 net2667 net2669 net2671
+ net2672 net2673 net2674 net2675 net2676 net2677 net2679 net2684
+ net2686 net2687 net2688 net2689 net2690 net2691 net2693 net2695
+ net2697 net2700 net2702 net2705 net2707 net2709 net2711 net2713
+ net2715 net2717 net2719 net2723 net2725 net2727 net2738 net2744
+ net2746 net2761 net2772 net2786 net2800 net2614 net2626 net2629
+ net2632 net2644 net2665 net2682 net2698 net2721 net2813 vin_p
+ vin_n vdd_a vss_a vdd_d vss_d vdd_dac vss_dac adc
Xcomp_mux_43_ net2729 comp_mux_00_ vdd_d vss_d INVD2LVT
Xcomp_mux_44_ net2934 net2611 comp_mux_01_ vdd_d vss_d IND2D1LVT
Xcomp_mux_46_ net2929 net2730 comp_mux_03_ vdd_d vss_d IND2D1LVT
Xcomp_mux_47_ spi_bits[177] comp_mux_04_ vdd_d vss_d CKND2LVT
Xcomp_mux_48_ comp_mux_01_ comp_mux_03_ comp_mux_04_ comp_mux_05_
+ vdd_d vss_d ND3D1LVT
Xcomp_mux_49_ net2926 comp_mux_00_ comp_mux_06_ vdd_d vss_d
+ IND2D1LVT
Xcomp_mux_50_ net2922 comp_mux_07_ vdd_d vss_d CKND0LVT
Xcomp_mux_51_ net2844 spi_bits[176] comp_mux_08_ vdd_d
+ vss_d ND2D1LVT
Xcomp_mux_52_ comp_mux_06_ comp_mux_08_ spi_bits[177]
+ comp_mux_09_ vdd_d vss_d ND3D1LVT
Xcomp_mux_53_ comp_mux_05_ comp_mux_09_ spi_bits[178]
+ comp_mux_10_ vdd_d vss_d ND3D1LVT
Xcomp_mux_54_ net2611 net2909 comp_mux_11_ vdd_d vss_d ND2D2LVT
Xcomp_mux_55_ net2730 net2905 comp_mux_12_ vdd_d vss_d ND2D2LVT
Xcomp_mux_56_ comp_mux_11_ comp_mux_12_ comp_mux_13_ vdd_d
+ vss_d ND2D2LVT
Xcomp_mux_57_ comp_mux_13_ comp_mux_04_ comp_mux_14_ vdd_d
+ vss_d ND2D2LVT
Xcomp_mux_58_ net2729 net2940 comp_mux_15_ vdd_d vss_d NR2D2LVT
Xcomp_mux_59_ comp_mux_15_ comp_mux_04_ comp_mux_16_ vdd_d
+ vss_d NR2XD1LVT
Xcomp_mux_60_ net2937 spi_bits[176] comp_mux_17_ vdd_d
+ vss_d IND2D1LVT
Xcomp_mux_61_ comp_mux_16_ comp_mux_17_ comp_mux_18_ vdd_d
+ vss_d ND2D2LVT
Xcomp_mux_62_ spi_bits[178] comp_mux_19_ vdd_d vss_d CKND0LVT
Xcomp_mux_63_ comp_mux_14_ comp_mux_18_ comp_mux_19_ comp_mux_20_
+ vdd_d vss_d ND3D1LVT
Xcomp_mux_64_ comp_mux_10_ comp_mux_20_ spi_bits[179]
+ comp_mux_21_ vdd_d vss_d ND3D1LVT
Xcomp_mux_65_ adc_comparator_out[1] net2729 comp_mux_22_
+ vdd_d vss_d IND2D1LVT
Xcomp_mux_66_ adc_comparator_out[0] comp_mux_23_ vdd_d
+ vss_d CKND0LVT
Xcomp_mux_67_ net2843 net2611 comp_mux_24_ vdd_d vss_d ND2D1LVT
Xcomp_mux_68_ comp_mux_22_ comp_mux_24_ comp_mux_04_ comp_mux_25_
+ vdd_d vss_d ND3D1LVT
Xcomp_mux_69_ adc_comparator_out[2] comp_mux_26_ vdd_d
+ vss_d CKND0LVT
Xcomp_mux_70_ comp_mux_00_ comp_mux_26_ comp_mux_27_ vdd_d
+ vss_d CKND2D1LVT
Xcomp_mux_71_ adc_comparator_out[3] comp_mux_28_ vdd_d
+ vss_d CKND0LVT
Xcomp_mux_72_ net2841 net2729 comp_mux_29_ vdd_d vss_d CKND2D1LVT
Xcomp_mux_73_ comp_mux_27_ comp_mux_29_ spi_bits[177]
+ comp_mux_30_ vdd_d vss_d ND3D1LVT
Xcomp_mux_74_ comp_mux_25_ comp_mux_30_ comp_mux_19_ comp_mux_31_
+ vdd_d vss_d ND3D1LVT
Xcomp_mux_75_ net2611 net2918 comp_mux_32_ vdd_d vss_d ND2D2LVT
Xcomp_mux_76_ net2730 net2915 comp_mux_33_ vdd_d vss_d CKND2D2LVT
Xcomp_mux_77_ comp_mux_32_ comp_mux_33_ comp_mux_34_ vdd_d
+ vss_d ND2D1LVT
Xcomp_mux_78_ comp_mux_34_ comp_mux_04_ comp_mux_35_ vdd_d
+ vss_d CKND2D1LVT
Xcomp_mux_79_ net2729 net2913 comp_mux_36_ vdd_d vss_d NR2D2LVT
Xcomp_mux_80_ comp_mux_36_ comp_mux_04_ comp_mux_37_ vdd_d
+ vss_d NR2XD1LVT
Xcomp_mux_81_ net2911 net2729 comp_mux_38_ vdd_d vss_d IND2D1LVT
Xcomp_mux_82_ comp_mux_37_ comp_mux_38_ comp_mux_39_ vdd_d
+ vss_d ND2D1LVT
Xcomp_mux_83_ comp_mux_35_ comp_mux_39_ spi_bits[178]
+ comp_mux_40_ vdd_d vss_d ND3D2LVT
Xcomp_mux_84_ spi_bits[179] comp_mux_41_ vdd_d vss_d CKND0LVT
Xcomp_mux_85_ comp_mux_31_ comp_mux_40_ comp_mux_41_ comp_mux_42_
+ vdd_d vss_d ND3D2LVT
Xcomp_mux_86_ comp_mux_21_ comp_mux_42_ net4 vdd_d vss_d
+ ND2D1LVT
Xspi_reg_0584_ net2863 spi_bits[52] spi_reg_0466_ vdd_d
+ vss_d CKND2D0LVT
Xspi_reg_0585_ spi_reg_0465_ spi_reg_0466_ spi_reg_0127_
+ vdd_d vss_d CKND2D0LVT
Xspi_reg_0586_ net2823 spi_bits[52] spi_reg_0467_ vdd_d
+ vss_d CKND2D0LVT
Xspi_reg_0587_ net2863 spi_bits[53] spi_reg_0468_ vdd_d
+ vss_d CKND2D0LVT
Xspi_reg_0588_ spi_reg_0467_ spi_reg_0468_ spi_reg_0128_
+ vdd_d vss_d CKND2D0LVT
Xspi_reg_0589_ spi_reg_0181_ spi_bits[53] spi_reg_0469_
+ vdd_d vss_d CKND2D0LVT
Xspi_reg_0590_ net2862 spi_bits[54] spi_reg_0470_ vdd_d
+ vss_d CKND2D0LVT
Xspi_reg_0591_ spi_reg_0469_ spi_reg_0470_ spi_reg_0129_
+ vdd_d vss_d CKND2D0LVT
Xspi_reg_0593_ net2818 spi_bits[54] spi_reg_0472_ vdd_d
+ vss_d CKND2D0LVT
Xspi_reg_0594_ net2861 spi_bits[55] spi_reg_0473_ vdd_d
+ vss_d CKND2D0LVT
Xspi_reg_0595_ spi_reg_0472_ spi_reg_0473_ spi_reg_0130_
+ vdd_d vss_d CKND2D0LVT
Xspi_reg_0596_ net2818 spi_bits[55] spi_reg_0474_ vdd_d
+ vss_d CKND2D0LVT
Xspi_reg_0598_ net2861 spi_bits[56] spi_reg_0476_ vdd_d
+ vss_d CKND2D0LVT
Xspi_reg_0599_ spi_reg_0474_ spi_reg_0476_ spi_reg_0131_
+ vdd_d vss_d CKND2D0LVT
Xspi_reg_0600_ net2818 spi_bits[56] spi_reg_0477_ vdd_d
+ vss_d CKND2D0LVT
Xspi_reg_0601_ net2861 spi_bits[57] spi_reg_0478_ vdd_d
+ vss_d CKND2D0LVT
Xspi_reg_0602_ spi_reg_0477_ spi_reg_0478_ spi_reg_0132_
+ vdd_d vss_d CKND2D0LVT
Xspi_reg_0603_ net2817 spi_bits[57] spi_reg_0479_ vdd_d
+ vss_d CKND2D0LVT
Xspi_reg_0604_ net2862 spi_bits[58] spi_reg_0480_ vdd_d
+ vss_d CKND2D0LVT
Xspi_reg_0605_ spi_reg_0479_ spi_reg_0480_ spi_reg_0133_
+ vdd_d vss_d CKND2D0LVT
Xspi_reg_0606_ net2817 spi_bits[58] spi_reg_0481_ vdd_d
+ vss_d CKND2D0LVT
Xspi_reg_0607_ net2862 spi_bits[59] spi_reg_0482_ vdd_d
+ vss_d CKND2D0LVT
Xspi_reg_0608_ spi_reg_0481_ spi_reg_0482_ spi_reg_0134_
+ vdd_d vss_d CKND2D0LVT
Xspi_reg_0609_ net2837 spi_bits[4] spi_reg_0483_ vdd_d
+ vss_d CKND2D0LVT
Xspi_reg_0610_ net2867 spi_bits[5] spi_reg_0484_ vdd_d
+ vss_d CKND2D0LVT
Xspi_reg_0611_ spi_reg_0483_ spi_reg_0484_ spi_reg_0135_
+ vdd_d vss_d CKND2D0LVT
Xspi_reg_0612_ spi_reg_0181_ spi_bits[59] spi_reg_0485_
+ vdd_d vss_d CKND2D0LVT
Xspi_reg_0613_ net2863 spi_bits[60] spi_reg_0486_ vdd_d
+ vss_d CKND2D0LVT
Xspi_reg_0614_ spi_reg_0485_ spi_reg_0486_ spi_reg_0136_
+ vdd_d vss_d CKND2D0LVT
Xspi_reg_0615_ net2818 spi_bits[60] spi_reg_0487_ vdd_d
+ vss_d CKND2D0LVT
Xspi_reg_0616_ net2860 spi_bits[61] spi_reg_0488_ vdd_d
+ vss_d CKND2D0LVT
Xspi_reg_0617_ spi_reg_0487_ spi_reg_0488_ spi_reg_0137_
+ vdd_d vss_d CKND2D0LVT
Xspi_reg_0618_ net2818 spi_bits[61] spi_reg_0489_ vdd_d
+ vss_d CKND2D0LVT
Xspi_reg_0619_ net2860 spi_bits[62] spi_reg_0490_ vdd_d
+ vss_d CKND2D0LVT
Xspi_reg_0620_ spi_reg_0489_ spi_reg_0490_ spi_reg_0138_
+ vdd_d vss_d CKND2D0LVT
Xspi_reg_0621_ net2818 spi_bits[62] spi_reg_0491_ vdd_d
+ vss_d CKND2D0LVT
Xspi_reg_0622_ net2860 spi_bits[63] spi_reg_0492_ vdd_d
+ vss_d CKND2D0LVT
Xspi_reg_0623_ spi_reg_0491_ spi_reg_0492_ spi_reg_0139_
+ vdd_d vss_d CKND2D0LVT
Xspi_reg_0625_ net2821 spi_bits[63] spi_reg_0494_ vdd_d
+ vss_d CKND2D0LVT
Xspi_reg_0626_ net2845 spi_bits[64] spi_reg_0495_ vdd_d
+ vss_d CKND2D0LVT
Xspi_reg_0627_ spi_reg_0494_ spi_reg_0495_ spi_reg_0140_
+ vdd_d vss_d CKND2D0LVT
Xspi_reg_0628_ net2821 spi_bits[64] spi_reg_0496_ vdd_d
+ vss_d CKND2D0LVT
Xspi_reg_0630_ net2845 spi_bits[65] spi_reg_0498_ vdd_d
+ vss_d CKND2D0LVT
Xspi_reg_0631_ spi_reg_0496_ spi_reg_0498_ spi_reg_0141_
+ vdd_d vss_d CKND2D0LVT
Xspi_reg_0632_ net2821 spi_bits[65] spi_reg_0499_ vdd_d
+ vss_d CKND2D0LVT
Xspi_reg_0633_ net2845 spi_bits[66] spi_reg_0500_ vdd_d
+ vss_d CKND2D0LVT
Xspi_reg_0634_ spi_reg_0499_ spi_reg_0500_ spi_reg_0142_
+ vdd_d vss_d CKND2D0LVT
Xspi_reg_0635_ net2821 spi_bits[66] spi_reg_0501_ vdd_d
+ vss_d CKND2D0LVT
Xspi_reg_0636_ net2845 spi_bits[67] spi_reg_0502_ vdd_d
+ vss_d CKND2D0LVT
Xspi_reg_0637_ spi_reg_0501_ spi_reg_0502_ spi_reg_0143_
+ vdd_d vss_d CKND2D0LVT
Xspi_reg_0638_ net2821 spi_bits[67] spi_reg_0503_ vdd_d
+ vss_d CKND2D0LVT
Xspi_reg_0639_ net2845 spi_bits[68] spi_reg_0504_ vdd_d
+ vss_d CKND2D0LVT
Xspi_reg_0640_ spi_reg_0503_ spi_reg_0504_ spi_reg_0144_
+ vdd_d vss_d CKND2D0LVT
Xspi_reg_0641_ net2821 spi_bits[68] spi_reg_0505_ vdd_d
+ vss_d CKND2D0LVT
Xspi_reg_0642_ net2845 spi_bits[69] spi_reg_0506_ vdd_d
+ vss_d CKND2D0LVT
Xspi_reg_0643_ spi_reg_0505_ spi_reg_0506_ spi_reg_0145_
+ vdd_d vss_d CKND2D0LVT
Xspi_reg_0644_ net2823 net2641 spi_reg_0507_ vdd_d vss_d
+ CKND2D0LVT
Xspi_reg_0645_ net2863 spi_bits[6] spi_reg_0508_ vdd_d
+ vss_d CKND2D0LVT
Xspi_reg_0646_ spi_reg_0507_ spi_reg_0508_ spi_reg_0146_
+ vdd_d vss_d CKND2D1LVT
Xspi_reg_0647_ net2821 spi_bits[69] spi_reg_0509_ vdd_d
+ vss_d CKND2D0LVT
Xspi_reg_0648_ net2845 spi_bits[70] spi_reg_0510_ vdd_d
+ vss_d CKND2D0LVT
Xspi_reg_0649_ spi_reg_0509_ spi_reg_0510_ spi_reg_0147_
+ vdd_d vss_d CKND2D1LVT
Xspi_reg_0650_ net2821 spi_bits[70] spi_reg_0511_ vdd_d
+ vss_d CKND2D0LVT
Xspi_reg_0651_ net2860 spi_bits[71] spi_reg_0512_ vdd_d
+ vss_d CKND2D0LVT
Xspi_reg_0652_ spi_reg_0511_ spi_reg_0512_ spi_reg_0148_
+ vdd_d vss_d CKND2D0LVT
Xspi_reg_0653_ net2818 spi_bits[71] spi_reg_0513_ vdd_d
+ vss_d CKND2D0LVT
Xspi_reg_0654_ net2861 spi_bits[72] spi_reg_0514_ vdd_d
+ vss_d CKND2D0LVT
Xspi_reg_0655_ spi_reg_0513_ spi_reg_0514_ spi_reg_0149_
+ vdd_d vss_d CKND2D0LVT
Xspi_reg_0657_ net2817 spi_bits[72] spi_reg_0516_ vdd_d
+ vss_d CKND2D0LVT
Xspi_reg_0658_ net2862 spi_bits[73] spi_reg_0517_ vdd_d
+ vss_d CKND2D0LVT
Xspi_reg_0659_ spi_reg_0516_ spi_reg_0517_ spi_reg_0150_
+ vdd_d vss_d CKND2D0LVT
Xspi_reg_0660_ net2817 spi_bits[73] spi_reg_0518_ vdd_d
+ vss_d CKND2D0LVT
Xspi_reg_0662_ net2862 spi_bits[74] spi_reg_0520_ vdd_d
+ vss_d CKND2D0LVT
Xspi_reg_0663_ spi_reg_0518_ spi_reg_0520_ spi_reg_0151_
+ vdd_d vss_d CKND2D0LVT
Xspi_reg_0664_ net2817 spi_bits[74] spi_reg_0521_ vdd_d
+ vss_d CKND2D0LVT
Xspi_reg_0665_ net2862 spi_bits[75] spi_reg_0522_ vdd_d
+ vss_d CKND2D0LVT
Xspi_reg_0666_ spi_reg_0521_ spi_reg_0522_ spi_reg_0152_
+ vdd_d vss_d CKND2D0LVT
Xspi_reg_0667_ net2817 spi_bits[75] spi_reg_0523_ vdd_d
+ vss_d CKND2D0LVT
Xspi_reg_0668_ net2862 spi_bits[76] spi_reg_0524_ vdd_d
+ vss_d CKND2D0LVT
Xspi_reg_0669_ spi_reg_0523_ spi_reg_0524_ spi_reg_0153_
+ vdd_d vss_d CKND2D0LVT
Xspi_reg_0670_ net2817 spi_bits[76] spi_reg_0525_ vdd_d
+ vss_d CKND2D0LVT
Xspi_reg_0671_ net2862 spi_bits[77] spi_reg_0526_ vdd_d
+ vss_d CKND2D0LVT
Xspi_reg_0672_ spi_reg_0525_ spi_reg_0526_ spi_reg_0154_
+ vdd_d vss_d CKND2D0LVT
Xspi_reg_0673_ net2817 spi_bits[77] spi_reg_0527_ vdd_d
+ vss_d CKND2D0LVT
Xspi_reg_0674_ net2864 spi_bits[78] spi_reg_0528_ vdd_d
+ vss_d CKND2D0LVT
Xspi_reg_0675_ net2610 spi_reg_0528_ spi_reg_0155_ vdd_d
+ vss_d CKND2D0LVT
Xspi_reg_0676_ net2836 spi_bits[78] spi_reg_0529_ vdd_d
+ vss_d CKND2D0LVT
Xspi_reg_0677_ net2864 spi_bits[79] spi_reg_0530_ vdd_d
+ vss_d CKND2D0LVT
Xspi_reg_0678_ spi_reg_0529_ spi_reg_0530_ spi_reg_0156_
+ vdd_d vss_d CKND2D0LVT
Xspi_reg_0679_ net2835 spi_bits[6] spi_reg_0531_ vdd_d
+ vss_d CKND2D0LVT
Xspi_reg_0680_ net2864 net2628 spi_reg_0532_ vdd_d vss_d
+ CKND2D0LVT
Xspi_reg_0681_ spi_reg_0531_ spi_reg_0532_ spi_reg_0157_
+ vdd_d vss_d CKND2D0LVT
Xspi_reg_0682_ net2836 spi_bits[79] spi_reg_0533_ vdd_d
+ vss_d CKND2D0LVT
Xspi_reg_0683_ net2864 spi_bits[80] spi_reg_0534_ vdd_d
+ vss_d CKND2D0LVT
Xspi_reg_0684_ spi_reg_0533_ spi_reg_0534_ spi_reg_0158_
+ vdd_d vss_d CKND2D0LVT
Xspi_reg_0685_ net2836 spi_bits[80] spi_reg_0535_ vdd_d
+ vss_d CKND2D0LVT
Xspi_reg_0686_ net2864 spi_bits[81] spi_reg_0536_ vdd_d
+ vss_d CKND2D0LVT
Xspi_reg_0687_ spi_reg_0535_ spi_reg_0536_ spi_reg_0159_
+ vdd_d vss_d CKND2D0LVT
Xspi_reg_0689_ net2836 spi_bits[81] spi_reg_0538_ vdd_d
+ vss_d CKND2D0LVT
Xspi_reg_0690_ net2864 spi_bits[82] spi_reg_0539_ vdd_d
+ vss_d CKND2D0LVT
Xspi_reg_0691_ spi_reg_0538_ spi_reg_0539_ spi_reg_0160_
+ vdd_d vss_d CKND2D0LVT
Xspi_reg_0692_ net2836 spi_bits[82] spi_reg_0540_ vdd_d
+ vss_d CKND2D0LVT
Xspi_reg_0694_ net2864 spi_bits[83] spi_reg_0542_ vdd_d
+ vss_d CKND2D0LVT
Xspi_reg_0695_ spi_reg_0540_ spi_reg_0542_ spi_reg_0161_
+ vdd_d vss_d CKND2D0LVT
Xspi_reg_0696_ net2836 spi_bits[83] spi_reg_0543_ vdd_d
+ vss_d CKND2D0LVT
Xspi_reg_0697_ net2864 spi_bits[84] spi_reg_0544_ vdd_d
+ vss_d CKND2D0LVT
Xspi_reg_0698_ spi_reg_0543_ spi_reg_0544_ spi_reg_0162_
+ vdd_d vss_d CKND2D0LVT
Xspi_reg_0699_ net2837 spi_bits[84] spi_reg_0545_ vdd_d
+ vss_d CKND2D0LVT
Xspi_reg_0700_ net2868 spi_bits[85] spi_reg_0546_ vdd_d
+ vss_d CKND2D0LVT
Xspi_reg_0701_ net2609 spi_reg_0546_ spi_reg_0163_ vdd_d
+ vss_d CKND2D0LVT
Xspi_reg_0702_ net2838 spi_bits[85] spi_reg_0547_ vdd_d
+ vss_d CKND2D0LVT
Xspi_reg_0703_ net2868 spi_bits[86] spi_reg_0548_ vdd_d
+ vss_d CKND2D0LVT
Xspi_reg_0704_ spi_reg_0547_ spi_reg_0548_ spi_reg_0164_
+ vdd_d vss_d CKND2D0LVT
Xspi_reg_0705_ net2838 spi_bits[86] spi_reg_0549_ vdd_d
+ vss_d CKND2D0LVT
Xspi_reg_0706_ net2868 spi_bits[87] spi_reg_0550_ vdd_d
+ vss_d CKND2D0LVT
Xspi_reg_0707_ spi_reg_0549_ spi_reg_0550_ spi_reg_0165_
+ vdd_d vss_d CKND2D0LVT
Xspi_reg_0708_ net2838 spi_bits[87] spi_reg_0551_ vdd_d
+ vss_d CKND2D0LVT
Xspi_reg_0709_ net2868 spi_bits[88] spi_reg_0552_ vdd_d
+ vss_d CKND2D0LVT
Xspi_reg_0710_ spi_reg_0551_ spi_reg_0552_ spi_reg_0166_
+ vdd_d vss_d CKND2D0LVT
Xspi_reg_0711_ net2838 spi_bits[88] spi_reg_0553_ vdd_d
+ vss_d CKND2D0LVT
Xspi_reg_0712_ net2868 spi_bits[89] spi_reg_0554_ vdd_d
+ vss_d CKND2D0LVT
Xspi_reg_0713_ spi_reg_0553_ spi_reg_0554_ spi_reg_0167_
+ vdd_d vss_d CKND2D0LVT
Xspi_reg_0714_ net2837 net2628 spi_reg_0555_ vdd_d vss_d
+ CKND2D0LVT
Xspi_reg_0715_ net2867 net2625 spi_reg_0556_ vdd_d vss_d
+ CKND2D0LVT
Xspi_reg_0716_ spi_reg_0555_ spi_reg_0556_ spi_reg_0168_
+ vdd_d vss_d CKND2D0LVT
Xspi_reg_0717_ net2838 spi_bits[89] spi_reg_0557_ vdd_d
+ vss_d CKND2D0LVT
Xspi_reg_0718_ net2868 spi_bits[90] spi_reg_0558_ vdd_d
+ vss_d CKND2D0LVT
Xspi_reg_0719_ spi_reg_0557_ spi_reg_0558_ spi_reg_0169_
+ vdd_d vss_d CKND2D0LVT
Xplace2625 spi_bits[8] net2625 vdd_d vss_d CKBD2LVT
Xspi_reg_0721_ net2838 spi_bits[90] spi_reg_0560_ vdd_d
+ vss_d CKND2D0LVT
Xspi_reg_0722_ net2868 spi_bits[91] spi_reg_0561_ vdd_d
+ vss_d CKND2D0LVT
Xspi_reg_0723_ spi_reg_0560_ spi_reg_0561_ spi_reg_0170_
+ vdd_d vss_d CKND2D1LVT
Xspi_reg_0724_ net2836 net2624 spi_reg_0562_ vdd_d vss_d
+ CKND2D1LVT
Xplace2626 net2625 net2626 vdd_d vss_d BUFFD6LVT
Xspi_reg_0726_ net2860 spi_bits[92] spi_reg_0564_ vdd_d
+ vss_d CKND2D0LVT
Xspi_reg_0727_ net3092 spi_reg_0564_ spi_reg_0171_ vdd_d
+ vss_d CKND2D0LVT
Xspi_reg_0728_ net2821 spi_bits[92] spi_reg_0565_ vdd_d
+ vss_d CKND2D0LVT
Xspi_reg_0729_ net2845 spi_bits[93] spi_reg_0566_ vdd_d
+ vss_d CKND2D0LVT
Xspi_reg_0730_ spi_reg_0565_ spi_reg_0566_ spi_reg_0172_
+ vdd_d vss_d CKND2D0LVT
Xspi_reg_0731_ net2821 spi_bits[93] spi_reg_0567_ vdd_d
+ vss_d CKND2D0LVT
Xspi_reg_0732_ net2845 spi_bits[94] spi_reg_0568_ vdd_d
+ vss_d CKND2D0LVT
Xspi_reg_0733_ spi_reg_0567_ spi_reg_0568_ spi_reg_0173_
+ vdd_d vss_d CKND2D0LVT
Xspi_reg_0734_ net2821 spi_bits[94] spi_reg_0569_ vdd_d
+ vss_d CKND2D0LVT
Xspi_reg_0735_ net2845 spi_bits[95] spi_reg_0570_ vdd_d
+ vss_d CKND2D0LVT
Xspi_reg_0736_ spi_reg_0569_ spi_reg_0570_ spi_reg_0174_
+ vdd_d vss_d CKND2D0LVT
Xspi_reg_0737_ net2821 spi_bits[95] spi_reg_0571_ vdd_d
+ vss_d CKND2D0LVT
Xspi_reg_0738_ net2845 spi_bits[96] spi_reg_0572_ vdd_d
+ vss_d CKND2D0LVT
Xspi_reg_0739_ spi_reg_0571_ spi_reg_0572_ spi_reg_0175_
+ vdd_d vss_d CKND2D0LVT
Xspi_reg_0740_ net2821 spi_bits[96] spi_reg_0573_ vdd_d
+ vss_d CKND2D0LVT
Xspi_reg_0741_ net2845 spi_bits[97] spi_reg_0574_ vdd_d
+ vss_d CKND2D0LVT
Xspi_reg_0742_ spi_reg_0573_ spi_reg_0574_ spi_reg_0176_
+ vdd_d vss_d CKND2D0LVT
Xspi_reg_0743_ net2821 spi_bits[97] spi_reg_0575_ vdd_d
+ vss_d CKND2D0LVT
Xspi_reg_0744_ net2845 spi_bits[98] spi_reg_0576_ vdd_d
+ vss_d CKND2D0LVT
Xspi_reg_0745_ spi_reg_0575_ spi_reg_0576_ spi_reg_0177_
+ vdd_d vss_d CKND2D0LVT
Xspi_reg_0746_ net2821 spi_bits[98] spi_reg_0577_ vdd_d
+ vss_d CKND2D0LVT
Xspi_reg_0747_ net2861 spi_bits[99] spi_reg_0578_ vdd_d
+ vss_d CKND2D0LVT
Xspi_reg_0748_ net2606 spi_reg_0578_ spi_reg_0178_ vdd_d
+ vss_d CKND2D0LVT
Xspi_reg_0749_ net2837 spi_bits[8] spi_reg_0579_ vdd_d
+ vss_d CKND2D0LVT
Xspi_reg_0750_ net2867 net2613 spi_reg_0580_ vdd_d vss_d
+ CKND2D0LVT
Xspi_reg_0751_ spi_reg_0579_ spi_reg_0580_ spi_reg_0179_
+ vdd_d vss_d CKND2D0LVT
Xspi_reg_0752_ spi_reg_0181_ spi_bits[179] spi_reg_0581_
+ vdd_d vss_d CKND2D0LVT
Xspi_reg_0753_ net2 net2612 spi_reg_0582_ vdd_d vss_d CKND2D0LVT
Xspi_reg_0754_ spi_reg_0581_ net2605 spi_reg_0180_ vdd_d
+ vss_d CKND2D0LVT
Xspi_reg_0755_ net2862 spi_reg_0181_ vdd_d vss_d CKND6LVT
Xspi_reg_0758_ net2819 net3 spi_reg_0184_ vdd_d vss_d CKND2D0LVT
Xspi_reg_0761_ spi_bits[0] net2860 spi_reg_0187_ vdd_d
+ vss_d CKND2D0LVT
Xspi_reg_0762_ spi_reg_0184_ spi_reg_0187_ spi_reg_0000_
+ vdd_d vss_d CKND2D0LVT
Xspi_reg_0763_ net2817 spi_bits[99] spi_reg_0188_ vdd_d
+ vss_d CKND2D0LVT
Xspi_reg_0765_ net2861 spi_bits[100] spi_reg_0190_ vdd_d
+ vss_d CKND2D1LVT
Xspi_reg_0766_ spi_reg_0188_ spi_reg_0190_ spi_reg_0001_
+ vdd_d vss_d CKND2D0LVT
Xspi_reg_0767_ net2817 spi_bits[100] spi_reg_0191_ vdd_d
+ vss_d CKND2D0LVT
Xspi_reg_0768_ net2861 spi_bits[101] spi_reg_0192_ vdd_d
+ vss_d CKND2D0LVT
Xspi_reg_0769_ spi_reg_0191_ spi_reg_0192_ spi_reg_0002_
+ vdd_d vss_d CKND2D0LVT
Xspi_reg_0770_ net2817 spi_bits[101] spi_reg_0193_ vdd_d
+ vss_d CKND2D0LVT
Xspi_reg_0771_ net2861 spi_bits[102] spi_reg_0194_ vdd_d
+ vss_d CKND2D0LVT
Xspi_reg_0772_ spi_reg_0193_ spi_reg_0194_ spi_reg_0003_
+ vdd_d vss_d CKND2D0LVT
Xspi_reg_0773_ net2817 spi_bits[102] spi_reg_0195_ vdd_d
+ vss_d CKND2D0LVT
Xspi_reg_0774_ net2861 spi_bits[103] spi_reg_0196_ vdd_d
+ vss_d CKND2D1LVT
Xspi_reg_0775_ spi_reg_0195_ spi_reg_0196_ spi_reg_0004_
+ vdd_d vss_d CKND2D0LVT
Xspi_reg_0776_ net2817 spi_bits[103] spi_reg_0197_ vdd_d
+ vss_d CKND2D0LVT
Xspi_reg_0777_ net2861 spi_bits[104] spi_reg_0198_ vdd_d
+ vss_d CKND2D0LVT
Xspi_reg_0778_ spi_reg_0197_ spi_reg_0198_ spi_reg_0005_
+ vdd_d vss_d CKND2D0LVT
Xspi_reg_0779_ net2817 spi_bits[104] spi_reg_0199_ vdd_d
+ vss_d CKND2D0LVT
Xspi_reg_0780_ net2861 spi_bits[105] spi_reg_0200_ vdd_d
+ vss_d CKND2D1LVT
Xspi_reg_0781_ spi_reg_0199_ spi_reg_0200_ spi_reg_0006_
+ vdd_d vss_d CKND2D1LVT
Xspi_reg_0782_ net2817 spi_bits[105] spi_reg_0201_ vdd_d
+ vss_d CKND2D0LVT
Xspi_reg_0783_ net2866 spi_bits[106] spi_reg_0202_ vdd_d
+ vss_d CKND2D1LVT
Xspi_reg_0784_ net2604 spi_reg_0202_ spi_reg_0007_ vdd_d
+ vss_d CKND2D1LVT
Xspi_reg_0785_ net2840 spi_bits[106] spi_reg_0203_ vdd_d
+ vss_d CKND2D0LVT
Xspi_reg_0786_ net2866 spi_bits[107] spi_reg_0204_ vdd_d
+ vss_d CKND2D0LVT
Xspi_reg_0787_ spi_reg_0203_ spi_reg_0204_ spi_reg_0008_
+ vdd_d vss_d CKND2D0LVT
Xspi_reg_0788_ net2835 spi_bits[107] spi_reg_0205_ vdd_d