* CDL Netlist generated by OpenROAD
*
* Include files for hierarchy
.INCLUDE "adc.cdl"

* CDL Netlist generated by OpenROAD

*.BUSDELIMITER [

.SUBCKT frida_core seq_init seq_samp seq_comp seq_logic spi_sclk spi_sdi spi_sdo spi_cs_b reset_b comp_out vin_p vin_n vdd_a vss_a vdd_d vss_d vdd_dac vss_dac
*.PININFO seq_init:I seq_samp:I seq_comp:I seq_logic:I spi_sclk:I spi_sdi:I spi_sdo:O spi_cs_b:I reset_b:I comp_out:O

Xadc_array[0].adc_inst net3285 net3301 net3315 net3337 adc_comparator_out[0]
+ spi_bits[64] spi_bits[65] spi_bits[66] spi_bits[67]
+ spi_bits[68] spi_bits[69] spi_bits[70] net2961 net2964
+ net2965 net2966 net2970 net2973 net2975 net2976 net2978 net2980
+ net2982 net2985 net2986 net2988 net2993 net2996 net2997 net2998
+ net2999 net3000 net3001 net3002 net3003 net3005 net3009 net3010
+ net3011 net3012 net3014 net3015 net3017 net3019 net3020 net3023
+ net3026 net3027 net3028 net3029 net3031 net3033 net3035 net3037
+ net3040 net3041 net3045 net3047 net3049 net3064 net3079 net3092
+ net3108 net3120 net3133 net3145 net2942 net2954 net2957 net2960
+ net2969 net2991 net3007 net3024 net3043 net3157 vin_p vin_n
+ vdd_a vss_a vdd_d vss_d vdd_dac vss_dac adc
Xadc_array[10].adc_inst net3289 net3305 net3319 net3329
+ adc_comparator_out[10] net3114 net3113 net3112 net3111 net3110
+ net3109 net3107 net2963 net2964 net2965 net2967 net2971 net2972
+ net2974 net2977 net2979 net2981 net2983 net2984 net2987 net2989
+ net2994 net2995 net2997 net2998 net2999 net3000 net3001 net3002
+ net3003 net3004 net3009 net3010 net3011 net3013 net3014 net3016
+ net3018 net3019 net3020 net3022 net3026 net3027 net3028 net3030
+ net3032 net3034 net3036 net3038 net3039 net3042 net3046 net3048
+ net3050 net3065 net3080 net3093 net3108 net3119 net3133 net3145
+ net2942 net2954 net2956 net2960 net2968 net2991 net3007 net3025
+ net3044 net3157 vin_p vin_n vdd_a vss_a vdd_d vss_d vdd_dac
+ vss_dac adc
Xadc_array[11].adc_inst net3288 net3304 net3318 net3328
+ adc_comparator_out[11] net3106 net3105 net3104 net3103 net3102
+ net3101 net3099 net2963 net2964 net2965 net2967 net2971 net2972
+ net2974 net2977 net2979 net2981 net2983 net2984 net2987 net2989
+ net2994 net2995 net2997 net2998 net2999 net3000 net3001 net3002
+ net3003 net3004 net3009 net3010 net3011 net3013 net3014 net3016
+ net3018 net3019 net3020 net3022 net3026 net3027 net3028 net3030
+ net3032 net3034 net3036 net3038 net3039 net3042 net3046 net3048
+ net3050 net3065 net3080 net3093 net3108 net3119 net3133 net3146
+ net3254 net2954 net2956 net2960 net2968 net2992 net3008 net3025
+ net3044 net3157 vin_p vin_n vdd_a vss_a vdd_d vss_d vdd_dac
+ vss_dac adc
Xadc_array[12].adc_inst net3292 net3308 net3322 net3332
+ adc_comparator_out[12] net3097 net3094 net3091 net3090 net3089
+ net3088 net3087 net2961 net2964 net2965 net2966 net2970 net2973
+ net2975 net2976 net2978 net2980 net2982 net2985 net2986 net2988
+ net2993 net2996 net2997 net2998 net2999 net3000 net3001 net3002
+ net3003 net3005 net3009 net3010 net3011 net3012 net3014 net3015
+ net3017 net3019 net3020 net3023 net3026 net3027 net3028 net3029
+ net3031 net3033 net3035 net3037 net3040 net3041 net3045 net3047
+ net3049 net3064 net3079 net3092 net3108 net3120 net3133 net3145
+ net2942 net2954 net2957 net2960 net2969 net2991 net3007 net3024
+ net3043 net3157 vin_p vin_n vdd_a vss_a vdd_d vss_d vdd_dac
+ vss_dac adc
Xadc_array[13].adc_inst net3292 net3308 net3322 net3332
+ adc_comparator_out[13] net3086 net3084 net3083 net3082 net3081
+ net3078 net3077 net2963 net2964 net2965 net2966 net2970 net2973
+ net2975 net2976 net2978 net2980 net2982 net2985 net2986 net2988
+ net2993 net2996 net2997 net2998 net2999 net3000 net3001 net3002
+ net3003 net3005 net3009 net3010 net3011 net3012 net3014 net3015
+ net3017 net3019 net3020 net3023 net3026 net3027 net3028 net3029
+ net3031 net3033 net3035 net3037 net3040 net3041 net3045 net3047
+ net3049 net3064 net3079 net3092 net3108 net3120 net3133 net3145
+ net2942 net2954 net2957 net2960 net2969 net2991 net3007 net3024
+ net3043 net3157 vin_p vin_n vdd_a vss_a vdd_d vss_d vdd_dac
+ vss_dac adc
Xadc_array[14].adc_inst net3290 net3306 net3320 net3330
+ adc_comparator_out[14] net3076 net3074 net3073 net3072 net3071
+ net3070 net3067 net2963 net2964 net2965 net2967 net2971 net2972
+ net2974 net2977 net2979 net2981 net2983 net2984 net2987 net2989
+ net2994 net2995 net2997 net2998 net2999 net3000 net3001 net3002
+ net3003 net3004 net3009 net3010 net3011 net3013 net3014 net3016
+ net3018 net3019 net3020 net3022 net3026 net3027 net3028 net3030
+ net3032 net3034 net3036 net3038 net3039 net3042 net3046 net3048
+ net3050 net3065 net3080 net3093 net3108 net3119 net3133 net3145
+ net2942 net2954 net2956 net2960 net2968 net2991 net3007 net3025
+ net3044 net3157 vin_p vin_n vdd_a vss_a vdd_d vss_d vdd_dac
+ vss_dac adc
Xadc_array[15].adc_inst net3288 net3304 net3318 net3328
+ adc_comparator_out[15] net3066 net3063 net3062 net3061 net3060
+ net3059 net3058 net2963 net2964 net2965 net2967 net2971 net2972
+ net2974 net2977 net2979 net2981 net2983 net2984 net2987 net2989
+ net2994 net2995 net2997 net2998 net2999 net3000 net3001 net3002
+ net3003 net3004 net3009 net3010 net3011 net3013 net3014 net3016
+ net3018 net3019 net3020 net3022 net3026 net3027 net3028 net3030
+ net3032 net3034 net3036 net3038 net3039 net3042 net3046 net3048
+ net3050 net3065 net3080 net3093 net3108 net3119 net3133 net3146
+ net3254 net2954 net2956 net2960 net2968 net2992 net3008 net3025
+ net3044 net3157 vin_p vin_n vdd_a vss_a vdd_d vss_d vdd_dac
+ vss_dac adc
Xadc_array[1].adc_inst net3285 net3301 net3315 net3337 adc_comparator_out[1]
+ net2959 spi_bits[72] spi_bits[73] spi_bits[74] spi_bits[75]
+ spi_bits[76] spi_bits[77] net2963 net2964 net2965 net2966
+ net2970 net2973 net2975 net2976 net2978 net2980 net2982 net2985
+ net2986 net2988 net2993 net2996 net2997 net2998 net2999 net3000
+ net3001 net3002 net3003 net3005 net3009 net3010 net3011 net3012
+ net3014 net3015 net3017 net3019 net3020 net3023 net3026 net3027
+ net3028 net3029 net3031 net3033 net3035 net3037 net3040 net3041
+ net3045 net3047 net3049 net3064 net3079 net3092 net3108 net3120
+ net3133 net3145 net2942 net2954 net2957 net2960 net2969 net2991
+ net3007 net3024 net3043 net3159 vin_p vin_n vdd_a vss_a vdd_d
+ vss_d vdd_dac vss_dac adc
Xadc_array[2].adc_inst net3284 net3300 net3314 net3336 adc_comparator_out[2]
+ net2958 spi_bits[79] spi_bits[80] spi_bits[81] spi_bits[82]
+ spi_bits[83] spi_bits[84] net2963 net2964 net2965 net2967
+ net2971 net2972 net2974 net2977 net2979 net2981 net2983 net2984
+ net2987 net2989 net2994 net2995 net2997 net2998 net2999 net3000
+ net3001 net3002 net3003 net3004 net3009 net3010 net3011 net3013
+ net3014 net3016 net3018 net3019 net3020 net3022 net3026 net3027
+ net3028 net3030 net3032 net3034 net3036 net3038 net3039 net3042
+ net3046 net3048 net3050 net3065 net3080 net3093 net3108 net3119
+ net3133 net3145 net2942 net2954 net2956 net2960 net2968 net2991
+ net3007 net3025 net3044 net3159 vin_p vin_n vdd_a vss_a vdd_d
+ vss_d vdd_dac vss_dac adc
Xadc_array[3].adc_inst net3282 net3298 net3312 net3334 adc_comparator_out[3]
+ spi_bits[85] spi_bits[86] spi_bits[87] spi_bits[88]
+ spi_bits[89] spi_bits[90] spi_bits[91] net2963 net2964
+ net2965 net2967 net2971 net2972 net2974 net2977 net2979 net2981
+ net2983 net2984 net2987 net2989 net2994 net2995 net2997 net2998
+ net2999 net3000 net3001 net3002 net3003 net3004 net3009 net3010
+ net3011 net3013 net3014 net3016 net3018 net3019 net3020 net3022
+ net3026 net3027 net3028 net3030 net3032 net3034 net3036 net3038
+ net3039 net3042 net3046 net3048 net3050 net3065 net3080 net3093
+ net3108 net3119 net3133 net3146 net3254 net2954 net2956 net2960
+ net2968 net2992 net3008 net3025 net3044 net3159 vin_p vin_n
+ vdd_a vss_a vdd_d vss_d vdd_dac vss_dac adc
Xadc_array[4].adc_inst net3286 net3302 net3316 net3338 adc_comparator_out[4]
+ net2951 net2950 net2949 net2948 net2947 net2946 net2945 net2961
+ net2964 net2965 net2966 net2970 net2973 net2975 net2976 net2978
+ net2980 net2982 net2985 net2986 net2988 net2993 net2996 net2997
+ net2998 net2999 net3000 net3001 net3002 net3003 net3005 net3009
+ net3010 net3011 net3012 net3014 net3015 net3017 net3019 net3020
+ net3023 net3026 net3027 net3028 net3029 net3031 net3033 net3035
+ net3037 net3040 net3041 net3045 net3047 net3049 net3064 net3079
+ net3092 net3108 net3120 net3133 net3145 net2942 net2954 net2957
+ net2960 net2969 net2991 net3007 net3024 net3043 net3157 vin_p
+ vin_n vdd_a vss_a vdd_d vss_d vdd_dac vss_dac adc
Xadc_array[5].adc_inst net3286 net3302 net3316 net3338 adc_comparator_out[5]
+ net2944 net3156 net3155 net3154 net3153 net3152 net3151 net2963
+ net2964 net2965 net2966 net2970 net2973 net2975 net2976 net2978
+ net2980 net2982 net2985 net2986 net2988 net2993 net2996 net2997
+ net2998 net2999 net3000 net3001 net3002 net3003 net3005 net3009
+ net3010 net3011 net3012 net3014 net3015 net3017 net3019 net3020
+ net3023 net3026 net3027 net3028 net3029 net3031 net3033 net3035
+ net3037 net3040 net3041 net3045 net3047 net3049 net3064 net3079
+ net3092 net3108 net3120 net3133 net3145 net2942 net2954 net2957
+ net2960 net2969 net2991 net3007 net3024 net3043 net3157 vin_p
+ vin_n vdd_a vss_a vdd_d vss_d vdd_dac vss_dac adc
Xadc_array[6].adc_inst net3283 net3299 net3313 net3335 adc_comparator_out[6]
+ net3150 net3149 net3148 net3147 net3144 net3143 net3142 net2963
+ net2964 net2965 net2967 net2971 net2972 net2974 net2977 net2979
+ net2981 net2983 net2984 net2987 net2989 net2994 net2995 net2997
+ net2998 net2999 net3000 net3001 net3002 net3003 net3004 net3009
+ net3010 net3011 net3013 net3014 net3016 net3018 net3019 net3020
+ net3022 net3026 net3027 net3028 net3030 net3032 net3034 net3036
+ net3038 net3039 net3042 net3046 net3048 net3050 net3065 net3080
+ net3093 net3108 net3119 net3133 net3145 net2942 net2954 net2956
+ net2960 net2968 net2991 net3007 net3025 net3044 net3157 vin_p
+ vin_n vdd_a vss_a vdd_d vss_d vdd_dac vss_dac adc
Xadc_array[7].adc_inst net3282 net3298 net3312 net3334 adc_comparator_out[7]
+ net3141 net3140 net3139 net3138 net3137 net3136 net3135 net2963
+ net2964 net2965 net2967 net2971 net2972 net2974 net2977 net2979
+ net2981 net2983 net2984 net2987 net2989 net2994 net2995 net2997
+ net2998 net2999 net3000 net3001 net3002 net3003 net3004 net3009
+ net3010 net3011 net3013 net3014 net3016 net3018 net3019 net3020
+ net3022 net3026 net3027 net3028 net3030 net3032 net3034 net3036
+ net3038 net3039 net3042 net3046 net3048 net3050 net3065 net3080
+ net3093 net3108 net3119 net3133 net3146 net3254 net2954 net2956
+ net2960 net2968 net2992 net3008 net3025 net3044 net3157 vin_p
+ vin_n vdd_a vss_a vdd_d vss_d vdd_dac vss_dac adc
Xadc_array[8].adc_inst net3291 net3307 net3321 net3331 adc_comparator_out[8]
+ net3132 net3130 net3129 net3128 net3127 net3126 net3124 net2961
+ net2964 net2965 net2966 net2970 net2973 net2975 net2976 net2978
+ net2980 net2982 net2985 net2986 net2988 net2993 net2996 net2997
+ net2998 net2999 net3000 net3001 net3002 net3003 net3005 net3009
+ net3010 net3011 net3012 net3014 net3015 net3017 net3019 net3020
+ net3023 net3026 net3027 net3028 net3029 net3031 net3033 net3035
+ net3037 net3040 net3041 net3045 net3047 net3049 net3064 net3079
+ net3092 net3108 net3120 net3133 net3145 net2942 net2954 net2957
+ net2960 net2969 net2991 net3007 net3024 net3043 net3157 vin_p
+ vin_n vdd_a vss_a vdd_d vss_d vdd_dac vss_dac adc
Xadc_array[9].adc_inst net3291 net3307 net3321 net3331 adc_comparator_out[9]
+ net3123 net3122 net3121 net3118 net3117 net3116 net3115 net2963
+ net2964 net2965 net2966 net2970 net2973 net2975 net2976 net2978
+ net2980 net2982 net2985 net2986 net2988 net2993 net2996 net2997
+ net2998 net2999 net3000 net3001 net3002 net3003 net3005 net3009
+ net3010 net3011 net3012 net3014 net3015 net3017 net3019 net3020
+ net3023 net3026 net3027 net3028 net3029 net3031 net3033 net3035
+ net3037 net3040 net3041 net3045 net3047 net3049 net3064 net3079
+ net3092 net3108 net3120 net3133 net3145 net2942 net2954 net2957
+ net2960 net2969 net2991 net3007 net3024 net3043 net3157 vin_p
+ vin_n vdd_a vss_a vdd_d vss_d vdd_dac vss_dac adc
Xcomp_mux_43_ net3238 comp_mux_00_ vdd_d vss_d CKND0LVT
Xcomp_mux_45_ net3165 net3054 net3052 comp_mux_02_ vdd_d
+ vss_d NR3D0LVT
Xcomp_mux_46_ net3052 comp_mux_03_ vdd_d vss_d INVD2LVT
Xcomp_mux_47_ comp_mux_03_ net3054 comp_mux_04_ vdd_d vss_d
+ ND2D2LVT
Xcomp_mux_48_ adc_comparator_out[13] comp_mux_05_ vdd_d
+ vss_d INVD1LVT
Xcomp_mux_49_ comp_mux_04_ net3164 comp_mux_06_ vdd_d vss_d
+ NR2D2LVT
Xcomp_mux_50_ comp_mux_02_ comp_mux_06_ comp_mux_07_ vdd_d
+ vss_d NR2XD1LVT
Xcomp_mux_51_ net3053 net3234 comp_mux_08_ vdd_d vss_d NR2XD0LVT
Xcomp_mux_52_ comp_mux_08_ comp_mux_03_ comp_mux_09_ vdd_d
+ vss_d NR2XD0LVT
Xcomp_mux_53_ net3230 spi_bits[176] comp_mux_10_ vdd_d
+ vss_d IND2D0LVT
Xcomp_mux_54_ comp_mux_09_ comp_mux_10_ comp_mux_11_ vdd_d
+ vss_d CKND2D1LVT
Xcomp_mux_55_ comp_mux_07_ spi_bits[178] comp_mux_11_
+ comp_mux_12_ vdd_d vss_d ND3D2LVT
Xcomp_mux_56_ net3054 net3052 comp_mux_13_ vdd_d vss_d NR2D2LVT
Xcomp_mux_57_ comp_mux_13_ net3211 comp_mux_14_ vdd_d vss_d
+ ND2D1LVT
Xcomp_mux_58_ spi_bits[178] comp_mux_15_ vdd_d vss_d CKND0LVT
Xcomp_mux_59_ comp_mux_14_ comp_mux_15_ comp_mux_16_ vdd_d
+ vss_d CKND2D1LVT
Xcomp_mux_60_ net3206 comp_mux_04_ comp_mux_17_ vdd_d vss_d
+ INR2D2LVT
Xcomp_mux_61_ comp_mux_16_ comp_mux_17_ comp_mux_18_ vdd_d
+ vss_d NR2XD1LVT
Xcomp_mux_62_ net3054 comp_mux_19_ vdd_d vss_d CKND2LVT
Xcomp_mux_63_ net3245 comp_mux_19_ comp_mux_20_ vdd_d vss_d
+ IND2D1LVT
Xcomp_mux_64_ net3242 net3053 comp_mux_21_ vdd_d vss_d IND2D0LVT
Xcomp_mux_65_ comp_mux_20_ comp_mux_21_ net3052 comp_mux_22_
+ vdd_d vss_d ND3D0LVT
Xcomp_mux_66_ comp_mux_18_ comp_mux_22_ comp_mux_23_ vdd_d
+ vss_d ND2D1LVT
Xcomp_mux_67_ comp_mux_12_ comp_mux_23_ net3051 comp_mux_24_
+ vdd_d vss_d ND3D2LVT
Xcomp_mux_68_ net3054 net3216 net3052 comp_mux_25_ vdd_d
+ vss_d OAI21D1LVT
Xcomp_mux_69_ comp_mux_19_ net3215 comp_mux_25_ comp_mux_26_
+ vdd_d vss_d IAO21D2LVT
Xcomp_mux_70_ comp_mux_13_ net3223 comp_mux_27_ vdd_d vss_d
+ ND2D1LVT
Xcomp_mux_71_ comp_mux_03_ net3054 net3219 comp_mux_28_
+ vdd_d vss_d ND3D2LVT
Xcomp_mux_72_ comp_mux_27_ comp_mux_28_ comp_mux_29_ vdd_d
+ vss_d CKND2D2LVT
Xcomp_mux_73_ comp_mux_26_ comp_mux_29_ comp_mux_30_ vdd_d
+ vss_d NR2XD1LVT
Xcomp_mux_74_ net3051 spi_bits[178] comp_mux_31_ vdd_d
+ vss_d IND2D0LVT
Xcomp_mux_75_ comp_mux_30_ comp_mux_31_ comp_mux_32_ vdd_d
+ vss_d NR2D1LVT
Xcomp_mux_76_ net3051 spi_bits[178] comp_mux_33_ vdd_d
+ vss_d NR2D1LVT
Xcomp_mux_77_ comp_mux_33_ net3052 comp_mux_34_ vdd_d vss_d
+ CKND2D0LVT
Xcomp_mux_78_ net3224 comp_mux_19_ comp_mux_34_ comp_mux_35_
+ vdd_d vss_d INR3D0LVT
Xcomp_mux_79_ comp_mux_32_ comp_mux_35_ comp_mux_36_ vdd_d
+ vss_d NR2D2LVT
Xcomp_mux_80_ comp_mux_24_ comp_mux_36_ comp_mux_37_ vdd_d
+ vss_d ND2D2LVT
Xcomp_mux_81_ adc_comparator_out[2] net3054 comp_mux_34_
+ comp_mux_38_ vdd_d vss_d INR3D0LVT
Xcomp_mux_82_ comp_mux_33_ comp_mux_39_ vdd_d vss_d CKND0LVT
Xcomp_mux_83_ net3225 comp_mux_04_ comp_mux_39_ comp_mux_40_
+ vdd_d vss_d INR3D0LVT
Xcomp_mux_84_ comp_mux_37_ comp_mux_38_ comp_mux_40_ comp_mux_41_
+ vdd_d vss_d NR3D1LVT
Xcomp_mux_85_ comp_mux_13_ comp_mux_33_ net3248 comp_mux_42_
+ vdd_d vss_d ND3D1LVT
Xcomp_mux_86_ comp_mux_41_ comp_mux_42_ net4 vdd_d vss_d
+ CKND2D2LVT
Xspi_reg_0607_ spi_reg_0187_ spi_reg_0192_ spi_reg_0000_
+ vdd_d vss_d CKND2D1LVT
Xspi_reg_0608_ net2838 spi_bits[100] spi_reg_0193_ vdd_d
+ vss_d ND2D1LVT
Xspi_reg_0609_ net2883 net2913 spi_bits[99] spi_reg_0194_
+ vdd_d vss_d ND3D0LVT
Xspi_reg_0610_ spi_reg_0193_ spi_reg_0194_ spi_reg_0001_
+ vdd_d vss_d CKND2D1LVT
Xspi_reg_0611_ net2838 spi_bits[101] spi_reg_0195_ vdd_d
+ vss_d ND2D1LVT
Xspi_reg_0612_ net2884 net2914 spi_bits[100] spi_reg_0196_
+ vdd_d vss_d ND3D0LVT
Xspi_reg_0613_ spi_reg_0195_ spi_reg_0196_ spi_reg_0002_
+ vdd_d vss_d CKND2D1LVT
Xspi_reg_0614_ net2838 spi_bits[102] spi_reg_0197_ vdd_d
+ vss_d ND2D1LVT
Xspi_reg_0615_ net2884 net2914 spi_bits[101] spi_reg_0198_
+ vdd_d vss_d ND3D1LVT
Xspi_reg_0616_ spi_reg_0197_ spi_reg_0198_ spi_reg_0003_
+ vdd_d vss_d CKND2D1LVT
Xspi_reg_0617_ net2838 spi_bits[103] spi_reg_0199_ vdd_d
+ vss_d ND2D1LVT
Xspi_reg_0618_ net2884 net2914 spi_bits[102] spi_reg_0200_
+ vdd_d vss_d ND3D0LVT
Xspi_reg_0619_ spi_reg_0199_ spi_reg_0200_ spi_reg_0004_
+ vdd_d vss_d CKND2D1LVT
Xspi_reg_0620_ net2838 spi_bits[104] spi_reg_0201_ vdd_d
+ vss_d ND2D1LVT
Xspi_reg_0621_ net2884 net2914 spi_bits[103] spi_reg_0202_
+ vdd_d vss_d ND3D1LVT
Xspi_reg_0622_ spi_reg_0201_ spi_reg_0202_ spi_reg_0005_
+ vdd_d vss_d CKND2D1LVT
Xspi_reg_0623_ net2838 spi_bits[105] spi_reg_0203_ vdd_d
+ vss_d ND2D1LVT
Xspi_reg_0624_ net2884 net2914 spi_bits[104] spi_reg_0204_
+ vdd_d vss_d ND3D1LVT
Xspi_reg_0625_ spi_reg_0203_ spi_reg_0204_ spi_reg_0006_
+ vdd_d vss_d CKND2D1LVT
Xspi_reg_0626_ net2859 spi_bits[106] spi_reg_0205_ vdd_d
+ vss_d ND2D1LVT
Xspi_reg_0627_ net2887 net2931 spi_bits[105] spi_reg_0206_
+ vdd_d vss_d ND3D0LVT
Xspi_reg_0628_ spi_reg_0205_ net2875 spi_reg_0007_ vdd_d
+ vss_d CKND2D1LVT
Xspi_reg_0629_ net2860 spi_bits[107] spi_reg_0207_ vdd_d
+ vss_d ND2D1LVT
Xspi_reg_0630_ net2891 net2934 spi_bits[106] spi_reg_0208_
+ vdd_d vss_d ND3D0LVT
Xspi_reg_0631_ spi_reg_0207_ spi_reg_0208_ spi_reg_0008_
+ vdd_d vss_d CKND2D1LVT
Xspi_reg_0632_ net2860 spi_bits[108] spi_reg_0209_ vdd_d
+ vss_d ND2D1LVT
Xspi_reg_0633_ net2891 net2934 spi_bits[107] spi_reg_0210_
+ vdd_d vss_d ND3D0LVT
Xspi_reg_0634_ spi_reg_0209_ spi_reg_0210_ spi_reg_0009_
+ vdd_d vss_d CKND2D1LVT
Xspi_reg_0636_ net2860 spi_bits[109] spi_reg_0212_ vdd_d
+ vss_d ND2D1LVT
Xspi_reg_0639_ net2892 net2935 spi_bits[108] spi_reg_0215_
+ vdd_d vss_d ND3D1LVT
Xspi_reg_0640_ spi_reg_0212_ spi_reg_0215_ spi_reg_0010_
+ vdd_d vss_d CKND2D1LVT
Xspi_reg_0641_ net2862 spi_bits[10] spi_reg_0216_ vdd_d
+ vss_d ND2D1LVT
Xspi_reg_0642_ net2893 net2935 spi_bits[9] spi_reg_0217_
+ vdd_d vss_d ND3D0LVT
Xspi_reg_0643_ spi_reg_0216_ spi_reg_0217_ spi_reg_0011_
+ vdd_d vss_d CKND2D1LVT
Xspi_reg_0644_ net2858 spi_bits[110] spi_reg_0218_ vdd_d
+ vss_d ND2D1LVT
Xspi_reg_0645_ net2892 net2935 spi_bits[109] spi_reg_0219_
+ vdd_d vss_d ND3D1LVT
Xspi_reg_0646_ spi_reg_0218_ spi_reg_0219_ spi_reg_0012_
+ vdd_d vss_d CKND2D1LVT
Xspi_reg_0647_ net2858 spi_bits[111] spi_reg_0220_ vdd_d
+ vss_d ND2D1LVT
Xspi_reg_0648_ net2892 net2935 spi_bits[110] spi_reg_0221_
+ vdd_d vss_d ND3D1LVT
Xspi_reg_0649_ spi_reg_0220_ spi_reg_0221_ spi_reg_0013_
+ vdd_d vss_d CKND2D1LVT
Xspi_reg_0650_ net2862 spi_bits[112] spi_reg_0222_ vdd_d
+ vss_d ND2D1LVT
Xspi_reg_0651_ net2892 net2936 spi_bits[111] spi_reg_0223_
+ vdd_d vss_d ND3D0LVT
Xspi_reg_0652_ spi_reg_0222_ spi_reg_0223_ spi_reg_0014_
+ vdd_d vss_d CKND2D1LVT
Xspi_reg_0653_ net2864 spi_bits[113] spi_reg_0224_ vdd_d
+ vss_d ND2D1LVT
Xspi_reg_0654_ net2893 net2937 spi_bits[112] spi_reg_0225_
+ vdd_d vss_d ND3D0LVT
Xspi_reg_0655_ spi_reg_0224_ spi_reg_0225_ spi_reg_0015_
+ vdd_d vss_d CKND2D1LVT
Xspi_reg_0656_ net2864 spi_bits[114] spi_reg_0226_ vdd_d
+ vss_d ND2D1LVT
Xspi_reg_0657_ net2893 net2937 spi_bits[113] spi_reg_0227_
+ vdd_d vss_d ND3D0LVT
Xspi_reg_0658_ spi_reg_0226_ spi_reg_0227_ spi_reg_0016_
+ vdd_d vss_d CKND2D1LVT
Xspi_reg_0659_ net2864 spi_bits[115] spi_reg_0228_ vdd_d
+ vss_d ND2D1LVT
Xspi_reg_0660_ net2894 net2937 spi_bits[114] spi_reg_0229_
+ vdd_d vss_d ND3D0LVT
Xspi_reg_0661_ spi_reg_0228_ spi_reg_0229_ spi_reg_0017_
+ vdd_d vss_d CKND2D1LVT
Xspi_reg_0662_ net2864 spi_bits[116] spi_reg_0230_ vdd_d
+ vss_d ND2D1LVT
Xspi_reg_0663_ net2894 net2937 spi_bits[115] spi_reg_0231_
+ vdd_d vss_d ND3D0LVT
Xspi_reg_0664_ spi_reg_0230_ spi_reg_0231_ spi_reg_0018_
+ vdd_d vss_d CKND2D1LVT
Xspi_reg_0665_ net2864 spi_bits[117] spi_reg_0232_ vdd_d
+ vss_d ND2D1LVT
Xspi_reg_0666_ net2894 net2937 spi_bits[116] spi_reg_0233_
+ vdd_d vss_d ND3D0LVT
Xspi_reg_0667_ spi_reg_0232_ spi_reg_0233_ spi_reg_0019_
+ vdd_d vss_d CKND2D1LVT
Xspi_reg_0669_ net2864 spi_bits[118] spi_reg_0235_ vdd_d
+ vss_d ND2D1LVT
Xplace2909 net3256 net2909 vdd_d vss_d CKBD2LVT
Xspi_reg_0672_ net2893 net2937 spi_bits[117] spi_reg_0238_
+ vdd_d vss_d ND3D0LVT
Xspi_reg_0673_ spi_reg_0235_ spi_reg_0238_ spi_reg_0020_
+ vdd_d vss_d CKND2D1LVT
Xspi_reg_0674_ net2864 spi_bits[119] spi_reg_0239_ vdd_d
+ vss_d ND2D1LVT
Xspi_reg_0675_ net2893 net2937 spi_bits[118] spi_reg_0240_
+ vdd_d vss_d ND3D0LVT
Xspi_reg_0676_ spi_reg_0239_ spi_reg_0240_ spi_reg_0021_
+ vdd_d vss_d CKND2D1LVT
Xspi_reg_0677_ net2862 spi_bits[11] spi_reg_0241_ vdd_d
+ vss_d ND2D1LVT
Xspi_reg_0678_ net2893 net2937 spi_bits[10] spi_reg_0242_
+ vdd_d vss_d ND3D0LVT
Xspi_reg_0679_ spi_reg_0241_ spi_reg_0242_ spi_reg_0022_
+ vdd_d vss_d CKND2D1LVT
Xspi_reg_0680_ net2846 spi_bits[120] spi_reg_0243_ vdd_d
+ vss_d ND2D1LVT
Xspi_reg_0681_ net2889 net2933 net3134 spi_reg_0244_ vdd_d
+ vss_d ND3D1LVT
Xspi_reg_0682_ spi_reg_0243_ net2874 spi_reg_0023_ vdd_d
+ vss_d CKND2D1LVT
Xspi_reg_0683_ net2848 spi_bits[121] spi_reg_0245_ vdd_d
+ vss_d ND2D1LVT
Xspi_reg_0684_ net2882 net2911 net3131 spi_reg_0246_ vdd_d
+ vss_d ND3D1LVT
Xspi_reg_0685_ spi_reg_0245_ spi_reg_0246_ spi_reg_0024_
+ vdd_d vss_d CKND2D1LVT
Xspi_reg_0686_ net2848 spi_bits[122] spi_reg_0247_ vdd_d
+ vss_d ND2D1LVT
Xspi_reg_0687_ net2882 net2911 spi_bits[121] spi_reg_0248_
+ vdd_d vss_d ND3D0LVT
Xspi_reg_0688_ spi_reg_0247_ spi_reg_0248_ spi_reg_0025_
+ vdd_d vss_d CKND2D1LVT
Xspi_reg_0689_ net2848 spi_bits[123] spi_reg_0249_ vdd_d
+ vss_d ND2D1LVT
Xspi_reg_0690_ net2882 net2911 spi_bits[122] spi_reg_0250_
+ vdd_d vss_d ND3D0LVT
Xspi_reg_0691_ spi_reg_0249_ spi_reg_0250_ spi_reg_0026_
+ vdd_d vss_d CKND2D1LVT
Xspi_reg_0692_ net2848 spi_bits[124] spi_reg_0251_ vdd_d
+ vss_d ND2D1LVT
Xspi_reg_0693_ net2882 net2911 spi_bits[123] spi_reg_0252_
+ vdd_d vss_d ND3D0LVT
Xspi_reg_0694_ spi_reg_0251_ spi_reg_0252_ spi_reg_0027_
+ vdd_d vss_d CKND2D1LVT
Xspi_reg_0695_ net2848 spi_bits[125] spi_reg_0253_ vdd_d
+ vss_d ND2D1LVT
Xspi_reg_0696_ net2882 net2911 spi_bits[124] spi_reg_0254_
+ vdd_d vss_d ND3D0LVT
Xspi_reg_0697_ spi_reg_0253_ spi_reg_0254_ spi_reg_0028_
+ vdd_d vss_d CKND2D1LVT
Xspi_reg_0698_ net2848 spi_bits[126] spi_reg_0255_ vdd_d
+ vss_d ND2D1LVT
Xspi_reg_0699_ net2882 net2911 spi_bits[125] spi_reg_0256_
+ vdd_d vss_d ND3D1LVT
Xspi_reg_0700_ spi_reg_0255_ spi_reg_0256_ spi_reg_0029_
+ vdd_d vss_d CKND2D1LVT
Xspi_reg_0702_ net2846 spi_bits[127] spi_reg_0258_ vdd_d
+ vss_d ND2D1LVT
Xspi_reg_0705_ net2877 net2916 net3125 spi_reg_0261_ vdd_d
+ vss_d ND3D0LVT
Xspi_reg_0706_ spi_reg_0258_ spi_reg_0261_ spi_reg_0030_
+ vdd_d vss_d ND2D1LVT
Xspi_reg_0707_ net2846 spi_bits[128] spi_reg_0262_ vdd_d
+ vss_d ND2D1LVT
Xspi_reg_0708_ net2877 net2916 spi_bits[127] spi_reg_0263_
+ vdd_d vss_d ND3D0LVT
Xspi_reg_0709_ spi_reg_0262_ spi_reg_0263_ spi_reg_0031_
+ vdd_d vss_d CKND2D1LVT
Xspi_reg_0710_ net2846 spi_bits[129] spi_reg_0264_ vdd_d
+ vss_d ND2D1LVT
Xspi_reg_0711_ net2877 net2916 spi_bits[128] spi_reg_0265_
+ vdd_d vss_d ND3D0LVT
Xspi_reg_0712_ spi_reg_0264_ spi_reg_0265_ spi_reg_0032_
+ vdd_d vss_d CKND2D1LVT
Xspi_reg_0713_ net2859 spi_bits[12] spi_reg_0266_ vdd_d
+ vss_d ND2D1LVT
Xspi_reg_0714_ net2891 net2934 spi_bits[11] spi_reg_0267_
+ vdd_d vss_d ND3D0LVT
Xspi_reg_0715_ spi_reg_0266_ spi_reg_0267_ spi_reg_0033_
+ vdd_d vss_d CKND2D1LVT
Xspi_reg_0716_ net2846 spi_bits[130] spi_reg_0268_ vdd_d
+ vss_d ND2D1LVT
Xspi_reg_0717_ net2877 net2916 spi_bits[129] spi_reg_0269_
+ vdd_d vss_d ND3D0LVT
Xspi_reg_0718_ spi_reg_0268_ spi_reg_0269_ spi_reg_0034_
+ vdd_d vss_d CKND2D1LVT
Xspi_reg_0719_ net2846 spi_bits[131] spi_reg_0270_ vdd_d
+ vss_d ND2D1LVT
Xspi_reg_0720_ net2878 net2917 spi_bits[130] spi_reg_0271_
+ vdd_d vss_d ND3D0LVT
Xspi_reg_0721_ spi_reg_0270_ spi_reg_0271_ spi_reg_0035_
+ vdd_d vss_d CKND2D1LVT
Xspi_reg_0722_ net2846 spi_bits[132] spi_reg_0272_ vdd_d
+ vss_d ND2D1LVT
Xspi_reg_0723_ net2878 net2917 spi_bits[131] spi_reg_0273_
+ vdd_d vss_d ND3D0LVT
Xspi_reg_0724_ spi_reg_0272_ spi_reg_0273_ spi_reg_0036_
+ vdd_d vss_d CKND2D1LVT
Xspi_reg_0725_ net2846 spi_bits[133] spi_reg_0274_ vdd_d
+ vss_d ND2D1LVT
Xspi_reg_0726_ net2876 net2916 spi_bits[132] spi_reg_0275_
+ vdd_d vss_d ND3D0LVT
Xspi_reg_0727_ spi_reg_0274_ spi_reg_0275_ spi_reg_0037_
+ vdd_d vss_d CKND2D1LVT
Xspi_reg_0728_ net2849 spi_bits[134] spi_reg_0276_ vdd_d
+ vss_d ND2D1LVT
Xspi_reg_0729_ net2878 net2917 spi_bits[133] spi_reg_0277_
+ vdd_d vss_d ND3D0LVT
Xspi_reg_0730_ spi_reg_0276_ spi_reg_0277_ spi_reg_0038_
+ vdd_d vss_d CKND2D1LVT
Xspi_reg_0731_ net2850 spi_bits[135] spi_reg_0278_ vdd_d
+ vss_d ND2D1LVT
Xspi_reg_0732_ net2880 net2919 spi_bits[134] spi_reg_0279_
+ vdd_d vss_d ND3D0LVT
Xspi_reg_0733_ spi_reg_0278_ spi_reg_0279_ spi_reg_0039_
+ vdd_d vss_d ND2D1LVT
Xspi_reg_0735_ net2850 spi_bits[136] spi_reg_0281_ vdd_d
+ vss_d ND2D1LVT
Xspi_reg_0738_ net2880 net2919 spi_bits[135] spi_reg_0284_
+ vdd_d vss_d ND3D0LVT
Xspi_reg_0739_ spi_reg_0281_ spi_reg_0284_ spi_reg_0040_
+ vdd_d vss_d CKND2D1LVT
Xspi_reg_0740_ net2850 spi_bits[137] spi_reg_0285_ vdd_d
+ vss_d ND2D1LVT
Xspi_reg_0741_ net2880 net2919 spi_bits[136] spi_reg_0286_
+ vdd_d vss_d ND3D0LVT
Xspi_reg_0742_ spi_reg_0285_ spi_reg_0286_ spi_reg_0041_
+ vdd_d vss_d CKND2D1LVT
Xspi_reg_0743_ net2850 spi_bits[138] spi_reg_0287_ vdd_d
+ vss_d ND2D1LVT
Xspi_reg_0744_ net2880 net2919 spi_bits[137] spi_reg_0288_
+ vdd_d vss_d ND3D0LVT
Xspi_reg_0745_ spi_reg_0287_ spi_reg_0288_ spi_reg_0042_
+ vdd_d vss_d CKND2D1LVT
Xspi_reg_0746_ net2850 spi_bits[139] spi_reg_0289_ vdd_d
+ vss_d ND2D1LVT
Xspi_reg_0747_ net2880 net2919 spi_bits[138] spi_reg_0290_
+ vdd_d vss_d ND3D0LVT
Xspi_reg_0748_ spi_reg_0289_ spi_reg_0290_ spi_reg_0043_
+ vdd_d vss_d CKND2D1LVT
Xspi_reg_0749_ net2860 spi_bits[13] spi_reg_0291_ vdd_d
+ vss_d ND2D1LVT
Xspi_reg_0750_ net2891 net2934 spi_bits[12] spi_reg_0292_
+ vdd_d vss_d ND3D0LVT
Xspi_reg_0751_ spi_reg_0291_ spi_reg_0292_ spi_reg_0044_
+ vdd_d vss_d CKND2D1LVT
Xspi_reg_0752_ net2850 spi_bits[140] spi_reg_0293_ vdd_d
+ vss_d ND2D1LVT
Xspi_reg_0753_ net2880 net2919 spi_bits[139] spi_reg_0294_
+ vdd_d vss_d ND3D1LVT
Xspi_reg_0754_ spi_reg_0293_ spi_reg_0294_ spi_reg_0045_
+ vdd_d vss_d CKND2D1LVT
Xspi_reg_0755_ net2852 spi_bits[141] spi_reg_0295_ vdd_d
+ vss_d ND2D1LVT
Xspi_reg_0756_ net2880 net2919 spi_bits[140] spi_reg_0296_
+ vdd_d vss_d ND3D1LVT
Xspi_reg_0757_ spi_reg_0295_ net2836 spi_reg_0046_ vdd_d
+ vss_d CKND2D1LVT
Xspi_reg_0758_ net2852 spi_bits[142] spi_reg_0297_ vdd_d
+ vss_d ND2D1LVT
Xspi_reg_0759_ net2881 net2920 spi_bits[141] spi_reg_0298_
+ vdd_d vss_d ND3D1LVT
Xspi_reg_0760_ spi_reg_0297_ spi_reg_0298_ spi_reg_0047_
+ vdd_d vss_d CKND2D1LVT
Xspi_reg_0761_ net2852 spi_bits[143] spi_reg_0299_ vdd_d
+ vss_d ND2D1LVT
Xspi_reg_0762_ net2881 net2920 spi_bits[142] spi_reg_0300_
+ vdd_d vss_d ND3D0LVT
Xspi_reg_0763_ spi_reg_0299_ spi_reg_0300_ spi_reg_0048_
+ vdd_d vss_d CKND2D1LVT
Xspi_reg_0764_ net2852 spi_bits[144] spi_reg_0301_ vdd_d
+ vss_d ND2D1LVT
Xspi_reg_0765_ net2881 net2920 spi_bits[143] spi_reg_0302_
+ vdd_d vss_d ND3D0LVT
Xspi_reg_0766_ spi_reg_0301_ spi_reg_0302_ spi_reg_0049_
+ vdd_d vss_d CKND2D1LVT
Xspi_reg_0768_ net2852 spi_bits[145] spi_reg_0304_ vdd_d
+ vss_d ND2D2LVT
Xspi_reg_0771_ net2881 net2920 spi_bits[144] spi_reg_0307_
+ vdd_d vss_d ND3D0LVT
Xspi_reg_0772_ spi_reg_0304_ spi_reg_0307_ spi_reg_0050_
+ vdd_d vss_d ND2D1LVT
Xspi_reg_0773_ net2852 spi_bits[146] spi_reg_0308_ vdd_d
+ vss_d ND2D2LVT
Xspi_reg_0774_ net2881 net2920 spi_bits[145] spi_reg_0309_
+ vdd_d vss_d ND3D0LVT
Xspi_reg_0775_ spi_reg_0308_ spi_reg_0309_ spi_reg_0051_
+ vdd_d vss_d ND2D1LVT
Xspi_reg_0776_ net2852 spi_bits[147] spi_reg_0310_ vdd_d
+ vss_d ND2D2LVT
Xspi_reg_0777_ net2880 net2919 net3100 spi_reg_0311_ vdd_d
+ vss_d ND3D0LVT
Xspi_reg_0778_ spi_reg_0310_ net2835 spi_reg_0052_ vdd_d
+ vss_d ND2D1LVT
Xspi_reg_0779_ net2844 spi_bits[148] spi_reg_0312_ vdd_d
+ vss_d ND2D2LVT
Xspi_reg_0780_ net2879 net2919 net3098 spi_reg_0313_ vdd_d
+ vss_d ND3D1LVT
Xspi_reg_0781_ spi_reg_0312_ net2834 spi_reg_0053_ vdd_d
+ vss_d ND2D1LVT
Xspi_reg_0782_ net2842 spi_bits[149] spi_reg_0314_ vdd_d
+ vss_d ND2D2LVT
Xspi_reg_0783_ net3352 net2910 net3253 spi_reg_0315_ vdd_d
+ vss_d ND3D0LVT
Xspi_reg_0784_ spi_reg_0314_ spi_reg_0315_ spi_reg_0054_
+ vdd_d vss_d ND2D1LVT
Xspi_reg_0785_ net2859 spi_bits[14] spi_reg_0316_ vdd_d
+ vss_d ND2D2LVT
Xspi_reg_0786_ net2891 net2934 spi_bits[13] spi_reg_0317_
+ vdd_d vss_d ND3D0LVT
Xspi_reg_0787_ spi_reg_0316_ spi_reg_0317_ spi_reg_0055_
+ vdd_d vss_d ND2D1LVT
Xspi_reg_0788_ net2842 spi_bits[150] spi_reg_0318_ vdd_d
+ vss_d ND2D1LVT
Xspi_reg_0789_ net3352 net2909 spi_bits[149] spi_reg_0319_
+ vdd_d vss_d ND3D0LVT
Xspi_reg_0790_ spi_reg_0318_ spi_reg_0319_ spi_reg_0056_
+ vdd_d vss_d CKND2D1LVT
Xspi_reg_0791_ net2842 spi_bits[151] spi_reg_0320_ vdd_d
+ vss_d ND2D1LVT
Xspi_reg_0792_ net3352 net2909 spi_bits[150] spi_reg_0321_
+ vdd_d vss_d ND3D0LVT
Xspi_reg_0793_ spi_reg_0320_ spi_reg_0321_ spi_reg_0057_
+ vdd_d vss_d CKND2D1LVT
Xspi_reg_0794_ net2843 spi_bits[152] spi_reg_0322_ vdd_d
+ vss_d ND2D1LVT
Xspi_reg_0795_ net2906 net2910 spi_bits[151] spi_reg_0323_
+ vdd_d vss_d ND3D0LVT
Xspi_reg_0796_ spi_reg_0322_ spi_reg_0323_ spi_reg_0058_
+ vdd_d vss_d CKND2D1LVT
Xspi_reg_0797_ net2843 spi_bits[153] spi_reg_0324_ vdd_d
+ vss_d ND2D1LVT
Xspi_reg_0798_ net2906 net2910 spi_bits[152] spi_reg_0325_
+ vdd_d vss_d ND3D0LVT
Xspi_reg_0799_ spi_reg_0324_ spi_reg_0325_ spi_reg_0059_
+ vdd_d vss_d CKND2D1LVT
Xspi_reg_0801_ net2843 spi_bits[154] spi_reg_0327_ vdd_d
+ vss_d ND2D1LVT
Xspi_reg_0804_ net2906 net2910 spi_bits[153] spi_reg_0330_
+ vdd_d vss_d ND3D0LVT
Xspi_reg_0805_ spi_reg_0327_ spi_reg_0330_ spi_reg_0060_
+ vdd_d vss_d CKND2D1LVT
Xspi_reg_0806_ net3250 spi_bits[155] spi_reg_0331_ vdd_d
+ vss_d ND2D1LVT
Xspi_reg_0807_ net3352 net3256 spi_bits[154] spi_reg_0332_
+ vdd_d vss_d ND3D0LVT
Xspi_reg_0808_ spi_reg_0331_ net2873 spi_reg_0061_ vdd_d
+ vss_d CKND2D1LVT
Xspi_reg_0809_ net2856 spi_bits[156] spi_reg_0333_ vdd_d
+ vss_d ND2D1LVT