************************************************************************
* auCdl Netlist:
* 
* Library Name:  frida
* Top Cell Name: frida_top
* View Name:     schematic
* Netlisted on:  Oct 16 20:08:09 2025
************************************************************************

*.BIPOLAR
*.RESI = 2000 
*.RESVAL
*.CAPVAL
*.DIOPERI
*.DIOAREA
*.EQUATION
*.SCALE METER
*.MEGA
.PARAM



************************************************************************
* Library Name: IOlib
* Cell Name:    INVD1_dnw_2_2
* View Name:    schematic
************************************************************************

.SUBCKT INVD1_dnw_2_2 I VDD VSS ZN
*.PININFO I:I ZN:O VDD:B VSS:B
MM0 ZN I VDD VDD pch l=120.0n w=1.04u m=1
MM1 ZN I VSS VSS nch_dnw l=120.0n w=780.0n m=1
.ENDS

************************************************************************
* Library Name: IOlib
* Cell Name:    OPAMP_CMFB_V4_dnw
* View Name:    schematic
************************************************************************

.SUBCKT OPAMP_CMFB_V4_dnw AGND AVDD INN INP OFF OUT VBIAS_OTA
*.PININFO INN:I INP:I OFF:I VBIAS_OTA:I OUT:O AGND:B AVDD:B
MM10 OUT net62 AGND AGND nch_dnw l=1u w=20u m=1
MM16 net14 AGND AGND AGND nch_dnw l=130.0n w=20u m=1
MM9 net14 net56 AGND AGND nch_dnw l=1u w=20u m=1
MM5 net62 net62 AGND AGND nch_dnw l=1u w=20u m=4
MM8 net56 net56 AGND AGND nch_dnw l=1u w=20u m=4
MM17 OUT AGND AGND AGND nch_dnw l=130.0n w=20u m=1
MM15 AVDD AVDD AVDD AVDD pch l=130.0n w=25.0u m=2
MM7 VBIAS_OTA VBIAS_OTA AVDD AVDD pch l=1u w=25.0u m=4
MM0 net20 VBIAS_OTA AVDD AVDD pch l=1u w=25.0u m=8
MM18 VBIAS_OTA VBIAS_OTA VBIAS_OTA AVDD pch l=130.0n w=25.0u m=2
MM3 net62 INP net20 AVDD pch l=1u w=20u m=4
MM12 OUT net14 AVDD AVDD pch l=1u w=20u m=2
MM6 net20 net20 net20 AVDD pch l=130.0n w=20u m=1
MM4 net20 net20 net20 AVDD pch l=130.0n w=20u m=1
MM1 AVDD AVDD AVDD AVDD pch l=130.0n w=20u m=2
MM13 AGND OFF net40 AVDD pch l=130.0n w=2u m=1
MM14 net40 net40 VBIAS_OTA AVDD pch l=1u w=25.0u m=2
MM11 net14 net14 AVDD AVDD pch l=1u w=20u m=2
MM2 net56 INN net20 AVDD pch l=1u w=20u m=4
.ENDS

************************************************************************
* Library Name: IOlib
* Cell Name:    TOP_TX_DUT_v6
* View Name:    schematic
************************************************************************

.SUBCKT TOP_TX_DUT_v6 AGND AVDD AVSS B[0] B[1] B[2] CMFB_IN_N CMFB_IN_P IN 
+ I_DRIVER_EXT OFF OUTN OUTP VBIAS_OTA VREF_CM
*.PININFO B[0]:I B[1]:I B[2]:I CMFB_IN_N:I CMFB_IN_P:I IN:I I_DRIVER_EXT:I 
*.PININFO OFF:I VBIAS_OTA:I VREF_CM:I OUTN:O OUTP:O AGND:B AVDD:B AVSS:B
XR13 net065 net065 rnpolywo l=35.0u w=1u m=1
XR11 net024 net024 rnpolywo l=35.0u w=1u m=1
XR12 net053 net053 rnpolywo l=16.0u w=1u m=1
XR10 net059 net059 rnpolywo l=16.0u w=1u m=1
XR4 net75 I_DRIVER_EXT rnpolywo l=192.000000u w=1u m=1
XR5 net77 I_DRIVER_EXT rnpolywo l=192.000000u w=1u m=1
XR2 net79 I_DRIVER_EXT rnpolywo l=64.0u w=1u m=1
XR20 net84 net83 rnpolywo l=35.0u w=1u m=1
XR19 net83 net82 rnpolywo l=35.0u w=1u m=1
XR18 net82 VREF_CM rnpolywo l=35.0u w=1u m=1
XR16 VREF_CM net80 rnpolywo l=35.0u w=1u m=1
XR15 net80 net067 rnpolywo l=35.0u w=1u m=1
XR14 net067 AGND rnpolywo l=35.0u w=1u m=1
MM24 net0179 AVDD net0190 AGND nch_dnw l=120.0n w=2u m=1
MM2 I_DRIVER_EXT OFF AGND AGND nch_dnw l=130.0n w=2u m=1
MM25 net28 net06 net28 AGND nch_dnw l=4.45u w=4.45u m=6
XI17 B[0] AVDD AGND net74 / INVD1_dnw_2_2
XI16 B[1] AVDD AGND net76 / INVD1_dnw_2_2
XI13 B[2] AVDD AGND net78 / INVD1_dnw_2_2
MM29 net0190 AGND net0179 AVDD pch l=120.0n w=1.2u m=1
MM7 net75 net74 AVDD AVDD pch l=130.0n w=15.0u m=1
MM1 net77 net76 AVDD AVDD pch l=130.0n w=15.0u m=1
MM0 net79 net78 AVDD AVDD pch l=130.0n w=7.5u m=2
MM12 AVDD AVDD AVDD AVDD pch l=200n w=25.0u m=2
MM6 net28 net06 AVDD AVDD pch l=200n w=25.0u m=32
MM10 net84 OFF AVDD AVDD pch l=130.0n w=15.0u m=1
XR8 AGND AGND rppolywo l=1u w=10u m=1
XR7 AGND AGND rppolywo l=1u w=10u m=1
XR6 net40 CMFB_IN_P rppolywo l=15.0u w=10u m=1
XR3 net40 CMFB_IN_N rppolywo l=15.0u w=10u m=1
MM48 AGND AGND OUTN AGND nch_lvt_dnw l=120.0n w=23.0u m=2
MM49 AGND AGND net28 AGND nch_lvt_dnw l=120.0n w=23.0u m=2
MM4 OUTP INN net63 AGND nch_lvt_dnw l=120.0n w=23.0u m=16
MM9 net28 INP OUTP AGND nch_lvt_dnw l=120.0n w=23.0u m=16
MM13 AGND AGND net28 AGND nch_lvt_dnw l=120.0n w=23.0u m=2
MM5 AGND AGND OUTP AGND nch_lvt_dnw l=120.0n w=23.0u m=2
MM3 OUTN INP net63 AGND nch_lvt_dnw l=120.0n w=23.0u m=16
MM8 net28 INN OUTN AGND nch_lvt_dnw l=120.0n w=23.0u m=16
MM15 net63 I_DRIVER_EXT AGND AGND nch_lvt_dnw l=1u w=25.0u m=80
MM14 net63 AGND AGND AGND nch_lvt_dnw l=1u w=25.0u m=8
MM11 I_DRIVER_EXT I_DRIVER_EXT AGND AGND nch_lvt_dnw l=1u w=25.0u m=4
MM16 I_DRIVER_EXT AGND AGND AGND nch_lvt_dnw l=1u w=25.0u m=2
XI21 AGND AVDD VREF_CM net40 OFF net06 VBIAS_OTA / OPAMP_CMFB_V4_dnw
MM46 net0169 IN net0260 AVDD pch l=120.0n w=4.16u m=2
MM45 net0260 OFF AVDD AVDD pch l=120.0n w=4.16u m=2
MM40 INN net0240 AVDD AVDD pch l=120.0n w=2.4u m=16
MM41 INP net0242 AVDD AVDD pch l=120.0n w=2.4u m=16
MM39 net0242 net0230 AVDD AVDD pch l=120.0n w=2.4u m=8
MM38 net0240 net0228 AVDD AVDD pch l=120.0n w=2.4u m=8
MM33 net0230 net0218 AVDD AVDD pch l=120.0n w=2.4u m=4
MM32 net0228 net0216 AVDD AVDD pch l=120.0n w=2.4u m=4
MM28 net0218 net0206 AVDD AVDD pch l=120.0n w=2.4u m=2
MM27 net0216 net0204 AVDD AVDD pch l=120.0n w=2.4u m=2
MM22 net0204 net0190 AVDD AVDD pch l=120.0n w=2.4u m=1
MM21 net0206 net0192 AVDD AVDD pch l=120.0n w=2.4u m=1
MM19 net0192 net0179 AVDD AVDD pch l=120.0n w=2.4u m=1
MM17 net0179 net0169 AVDD AVDD pch l=120.0n w=2.4u m=4
MM47 net0169 IN AGND AGND nch_dnw l=120.0n w=3.12u m=2
MM44 net0169 OFF AGND AGND nch_dnw l=120.0n w=3.12u m=2
MM43 INP net0242 AGND AGND nch_dnw l=120.0n w=800n m=16
MM42 INN net0240 AGND AGND nch_dnw l=120.0n w=800n m=16
MM37 net0242 net0230 AGND AGND nch_dnw l=120.0n w=800n m=8
MM36 net0240 net0228 AGND AGND nch_dnw l=120.0n w=800n m=8
MM35 net0230 net0218 AGND AGND nch_dnw l=120.0n w=800n m=4
MM34 net0228 net0216 AGND AGND nch_dnw l=120.0n w=800n m=4
MM31 net0218 net0206 AGND AGND nch_dnw l=120.0n w=800n m=2
MM30 net0216 net0204 AGND AGND nch_dnw l=120.0n w=800n m=2
MM26 net0204 net0190 AGND AGND nch_dnw l=120.0n w=800n m=1
MM23 net0206 net0192 AGND AGND nch_dnw l=120.0n w=800n m=1
MM20 net0192 net0179 AGND AGND nch_dnw l=120.0n w=800n m=1
MM18 net0179 net0169 AGND AGND nch_dnw l=120.0n w=800n m=4
.ENDS

************************************************************************
* Library Name: IOlib
* Cell Name:    SF_1V2_CDM
* View Name:    schematic
************************************************************************

.SUBCKT SF_1V2_CDM IO Internal VDD VDDPST VSS VSSPST
*.PININFO IO:B Internal:B VDD:B VDDPST:B VSS:B VSSPST:B
MM0 Internal VSSPST VSSPST VSSPST nch l=6e-08 w=6.06e-05 m=1
MM2 Internal VDDPST VDDPST VDDPST pch l=1e-07 w=5.672e-05 m=1
DD4 N0 VSSPST ndio area=5.45292e-11 pj=4e-05 m=1
DD6 VSSPST IO ndio area=5.20506e-11 pj=4e-05 m=1
DD7 VSSPST VDDPST ndio area=5.45292e-11 pj=4e-05 m=1
DD8 IO N1 pdio area=3.55266e-11 pj=4e-05 m=1
DD10 N1 N2 pdio area=5.20506e-11 pj=4e-05 m=1
DD11 N2 N3 pdio area=2.60253e-11 pj=4e-05 m=1
DD12 N3 VSSPST pdio area=2.60253e-11 pj=4e-05 m=1
DD13 N4 VSSPST pdio area=2.60253e-11 pj=4e-05 m=1
DD14 N5 N4 pdio area=2.60253e-11 pj=4e-05 m=1
DD16 N1 N5 pdio area=5.20506e-11 pj=4e-05 m=1
DD17 N1 VDDPST pdio area=3.55266e-11 pj=4e-05 m=1
DD18 VDDPST N1 pdio area=3.55266e-11 pj=4e-05 m=1
XR19 Internal IO rppolywo l=1.1e-06 w=3.8e-05 m=1
.ENDS

************************************************************************
* Library Name: IOlib
* Cell Name:    PASSIVE_CUP_pad
* View Name:    schematic
************************************************************************

.SUBCKT PASSIVE_CUP_pad I O PAD VDD VDDPST VSS VSSPST
*.PININFO I:I O:O PAD:B VDD:B VDDPST:B VSS:B VSSPST:B
*.CONNECT I PAD 
XI3 PAD O VDD VDDPST VSS VSSPST / SF_1V2_CDM
.ENDS

************************************************************************
* Library Name: IOlib
* Cell Name:    LVDS_TX_CUP_pad
* View Name:    schematic
************************************************************************

.SUBCKT LVDS_TX_CUP_pad DS[2] DS[1] DS[0] EN_B I PAD_N PAD_P VDD VDDPST VSS 
+ VSSPST
*.PININFO DS[2]:I DS[1]:I DS[0]:I EN_B:I I:I PAD_N:O PAD_P:O VDD:B VDDPST:B 
*.PININFO VSS:B VSSPST:B
XI0 VSSPST VDDPST VSS DS[0] DS[1] DS[2] net15 net16 I net14 EN_B PAD_N PAD_P 
+ net11 net10 / TOP_TX_DUT_v6
XI8 net018 net15 PAD_N VDD VDDPST VSS VSSPST / PASSIVE_CUP_pad
XI11 net017 net16 PAD_P VDD VDDPST VSS VSSPST / PASSIVE_CUP_pad
.ENDS

************************************************************************
* Library Name: IOlib
* Cell Name:    TOP_RX_DUT_v2
* View Name:    schematic
************************************************************************

.SUBCKT TOP_RX_DUT_v2 AVDD AVSS INN INP OFF OUT_RX
*.PININFO INN:I INP:I OFF:I OUT_RX:O AVDD:B AVSS:B
MM13 net0105 net0105 AVDD AVDD pch_lvt l=120.0n w=6u m=1
MM19 net069 OUTN_2 AVDD AVDD pch_lvt l=120.0n w=6u m=1
MM29 net075 AVDD AVDD AVDD pch_lvt l=120.0n w=12.5u m=1
MM28 net075 AVDD AVDD AVDD pch_lvt l=120.0n w=12.5u m=1
MM50 SOURCE net077 AVDD AVDD pch_lvt l=200n w=22.0u m=40
MM27 net075 INP SOURCE AVDD pch_lvt l=120.0n w=12.5u m=2
MM16 OUTN_2 OUTP_2 AVDD AVDD pch_lvt l=120.0n w=6u m=1
MM30 net076 INN SOURCE AVDD pch_lvt l=120.0n w=12.5u m=2
MM44 net017 net017 net077 AVDD pch_lvt l=1u w=6.5u m=1
MM18 OUTN_2 OUTN_2 AVDD AVDD pch_lvt l=120.0n w=6u m=1
MM2 AVDD net077 AVDD AVDD pch_lvt l=200n w=22.0u m=1
MM1 AVDD net077 AVDD AVDD pch_lvt l=200n w=22.0u m=1
MM15 OUTP_2 OUTN_2 AVDD AVDD pch_lvt l=120.0n w=6u m=1
MM10 net0125 net0105 AVDD AVDD pch_lvt l=120.0n w=6u m=1
MM49 net077 net077 AVDD AVDD pch_lvt l=200n w=22.0u m=4
MM20 net0125 OUTP_2 AVDD AVDD pch_lvt l=120.0n w=6u m=1
MM17 OUTP_2 OUTP_2 AVDD AVDD pch_lvt l=120.0n w=6u m=1
MM35 net0128 net0125 AVDD AVDD pch l=130.0n w=400n m=2
MM34 net0105 nOFF AVDD AVDD pch l=130.0n w=1u m=1
MMU1-M_u3 nOFF OFF AVDD AVDD pch l=120.0n w=1.04u m=1
MM39 OUT_RX net0128 AVDD AVDD pch l=130.0n w=400n m=4
MM0 net016 OFF AVDD AVDD pch l=130.0n w=1u m=1
MM8 net0105 net076 AVSS AVSS nch_lvt_dnw l=120.0n w=6u m=1
MM9 net0125 net075 AVSS AVSS nch_lvt_dnw l=120.0n w=6u m=1
MM23 net076 net075 AVSS AVSS nch_lvt_dnw l=120.0n w=3u m=1
MM26 net076 net076 AVSS AVSS nch_lvt_dnw l=120.0n w=3u m=1
MM12 OUTP_2 INP I_OUT AVSS nch_lvt_dnw l=120.0n w=10u m=1
MM3 I_OUT net013 AVSS AVSS nch_lvt_dnw l=200n w=22.0u m=40
MM6 net075 net075 AVSS AVSS nch_lvt_dnw l=120.0n w=3u m=1
MM21 net069 net069 AVSS AVSS nch_lvt_dnw l=120.0n w=2u m=1
MM11 net075 net076 AVSS AVSS nch_lvt_dnw l=120.0n w=3u m=1
MM4 AVSS net013 AVSS AVSS nch_lvt_dnw l=200n w=22.0u m=1
MM22 net0125 net069 AVSS AVSS nch_lvt_dnw l=120.0n w=2u m=1
MM5 AVSS net013 AVSS AVSS nch_lvt_dnw l=200n w=22.0u m=1
MM14 OUTN_2 INN I_OUT AVSS nch_lvt_dnw l=120.0n w=10u m=1
MM24 net013 net013 AVSS AVSS nch_lvt_dnw l=200n w=22.0u m=4
MM48 net017 nOFF AVSS AVSS nch_dnw l=130.0n w=1u m=1
MM38 OUT_RX net0128 AVSS AVSS nch_dnw l=130.0n w=200n m=4
MM36 net0128 net0125 AVSS AVSS nch_dnw l=130.0n w=200n m=2
MM33 net069 OFF AVSS AVSS nch_dnw l=130.0n w=1u m=1
MMU1-M_u2 nOFF OFF AVSS AVSS nch_dnw l=120.0n w=780.0n m=1
MM25 net016 net016 net013 AVSS nch_dnw l=1u w=2u m=1
MM7 net0125 OFF AVSS AVSS nch_dnw l=130.0n w=1u m=1
XR15 INP AVDD rppolywo l=75.55u w=3u m=1
XR12 AVDD INN rppolywo l=75.55u w=3u m=1
XR10 INN AVSS rppolywo l=35.26u w=5u m=1
XR16 AVSS INP rppolywo l=32.71u w=5u m=1
.ENDS

************************************************************************
* Library Name: tcbn65lp_dnw
* Cell Name:    DCAP64
* View Name:    schematic
************************************************************************

.SUBCKT DCAP64 VDD VSS
*.PININFO VDD:B VSS:B
MMI54 VDD net11 VDD VDD pch l=915.00n w=430.0n m=1
MM_u1 net67 net11 VDD VDD pch l=60n w=390.0n m=1
MMI56 VDD net11 VDD VDD pch l=915.00n w=430.0n m=1
MMI55 VDD net11 VDD VDD pch l=915.00n w=430.0n m=1
MMI39 VDD net11 VDD VDD pch l=915.00n w=430.0n m=1
MMI57 VDD net11 VDD VDD pch l=915.00n w=430.0n m=1
MMI58 VDD net11 VDD VDD pch l=915.00n w=430.0n m=1
MMI59 VDD net11 VDD VDD pch l=915.00n w=430.0n m=1
MMI53 VDD net11 VDD VDD pch l=915.00n w=430.0n m=1
MMI50 VDD net11 VDD VDD pch l=915.00n w=430.0n m=1
MMI52 VDD net11 VDD VDD pch l=915.00n w=430.0n m=1
MMI51 VDD net11 VDD VDD pch l=915.00n w=430.0n m=1
MMI64 VSS net67 VSS VSS nch_dnw l=915.00n w=300n m=1
MMI65 VSS net67 VSS VSS nch_dnw l=915.00n w=300n m=1
MMI62 VSS net67 VSS VSS nch_dnw l=915.00n w=300n m=1
MMI67 VSS net67 VSS VSS nch_dnw l=915.00n w=300n m=1
MMI68 VSS net67 VSS VSS nch_dnw l=915.00n w=300n m=1
MMI60 VSS net67 VSS VSS nch_dnw l=915.00n w=300n m=1
MMI66 VSS net67 VSS VSS nch_dnw l=915.00n w=300n m=1
MMI69 VSS net67 VSS VSS nch_dnw l=915.00n w=300n m=1
MMI49 VSS net67 VSS VSS nch_dnw l=915.00n w=300n m=1
MMI61 VSS net67 VSS VSS nch_dnw l=915.00n w=300n m=1
MM_u2 net11 net67 VSS VSS nch_dnw l=60n w=300n m=1
MMI63 VSS net67 VSS VSS nch_dnw l=915.00n w=300n m=1
.ENDS

************************************************************************
* Library Name: tcbn65lp_dnw
* Cell Name:    CKBD24
* View Name:    schematic
************************************************************************

.SUBCKT CKBD24 I VDD VSS Z
*.PININFO I:I Z:O VDD:B VSS:B
DDI3 VSS I ndio area=6.6e-14 pj=1.18e-06 m=1
MMU21_12 Z net5 VDD VDD pch l=60n w=520.0n m=1
MM_u3_4 net5 I VDD VDD pch l=60n w=520.0n m=1
MMU21_15 Z net5 VDD VDD pch l=60n w=520.0n m=1
MMU21_7 Z net5 VDD VDD pch l=60n w=520.0n m=1
MMU21_0 Z net5 VDD VDD pch l=60n w=520.0n m=1
MMU21_17 Z net5 VDD VDD pch l=60n w=520.0n m=1
MMU21_1 Z net5 VDD VDD pch l=60n w=520.0n m=1
MMU21_11 Z net5 VDD VDD pch l=60n w=520.0n m=1
MMU21_16 Z net5 VDD VDD pch l=60n w=520.0n m=1
MMU21_5 Z net5 VDD VDD pch l=60n w=520.0n m=1
MMU21_19 Z net5 VDD VDD pch l=60n w=520.0n m=1
MM_u3_3 net5 I VDD VDD pch l=60n w=520.0n m=1
MM_u3_5 net5 I VDD VDD pch l=60n w=520.0n m=1
MM_u3_0 net5 I VDD VDD pch l=60n w=520.0n m=1
MMU21_23 Z net5 VDD VDD pch l=60n w=520.0n m=1
MMU21_10 Z net5 VDD VDD pch l=60n w=520.0n m=1
MMU21_13 Z net5 VDD VDD pch l=60n w=520.0n m=1
MMU21_3 Z net5 VDD VDD pch l=60n w=520.0n m=1
MMU21_4 Z net5 VDD VDD pch l=60n w=520.0n m=1
MM_u3_2 net5 I VDD VDD pch l=60n w=520.0n m=1
MMU21_22 Z net5 VDD VDD pch l=60n w=520.0n m=1
MMU21_6 Z net5 VDD VDD pch l=60n w=520.0n m=1
MMU21_21 Z net5 VDD VDD pch l=60n w=520.0n m=1
MMU21_18 Z net5 VDD VDD pch l=60n w=520.0n m=1
MMU21_9 Z net5 VDD VDD pch l=60n w=520.0n m=1
MMU21_20 Z net5 VDD VDD pch l=60n w=520.0n m=1
MMU21_8 Z net5 VDD VDD pch l=60n w=520.0n m=1
MM_u3_1 net5 I VDD VDD pch l=60n w=520.0n m=1
MMU21_2 Z net5 VDD VDD pch l=60n w=520.0n m=1
MM_u3_6 net5 I VDD VDD pch l=60n w=520.0n m=1
MMU21_14 Z net5 VDD VDD pch l=60n w=520.0n m=1
MM_u15 net5 I VSS VSS nch_dnw l=60n w=2.1u m=1
MMU23 Z net5 VSS VSS nch_dnw l=60n w=7.35u m=1
.ENDS

************************************************************************
* Library Name: IOlib
* Cell Name:    LVDS_RX_CUP_pad
* View Name:    schematic
************************************************************************

.SUBCKT LVDS_RX_CUP_pad EN_B O PAD_N PAD_P VDD VDDPST VSS VSSPST
*.PININFO EN_B:I PAD_N:I PAD_P:I O:O VDD:B VDDPST:B VSS:B VSSPST:B
XI0 VDDPST VSSPST net15 net12 EN_B net011 / TOP_RX_DUT_v2
XI5 VDDPST VSSPST / DCAP64
XI1 net011 VDDPST VSSPST O / CKBD24
XI8 net014 net15 PAD_N VDD VDDPST VSS VSSPST / PASSIVE_CUP_pad
XI9 net013 net12 PAD_P VDD VDDPST VSS VSSPST / PASSIVE_CUP_pad
.ENDS

************************************************************************
* Library Name: IOlib
* Cell Name:    DNW_DEL0
* View Name:    schematic
************************************************************************

.SUBCKT DNW_DEL0 I VDD VSS Z
*.PININFO I:I Z:O VDD:B VSS:B
MMI2-M_u3 Z net11 VDD VDD pch l=60n w=520.0n m=1
MMU5-M_u3 net25 net5 VDD VDD pch l=600n w=520.0n m=1
MMI1-M_u3 net5 I VDD VDD pch l=60n w=520.0n m=1
MMU7-M_u3 net11 net25 VDD VDD pch l=600n w=520.0n m=1
MM3 Z net11 VSS VSS nch_dnw l=60n w=390.0n m=1
MM2 net5 I VSS VSS nch_dnw l=60n w=390.0n m=1
MM1 net25 net5 VSS VSS nch_dnw l=600n w=390.0n m=1
MM0 net11 net25 VSS VSS nch_dnw l=600n w=390.0n m=1
.ENDS

************************************************************************
* Library Name: IOlib
* Cell Name:    DNW_DEL015
* View Name:    schematic
************************************************************************

.SUBCKT DNW_DEL015 I VDD VSS Z
*.PININFO I:I Z:O VDD:B VSS:B
MMI2-M_u3 Z net13 VDD VDD pch l=60n w=520.0n m=1
MMI20 net57 net9 VDD VDD pch l=60n w=520.0n m=1
MMI23 net13 net9 net25 VDD pch l=60n w=520.0n m=1
MMI1-M_u3 net5 I VDD VDD pch l=60n w=520.0n m=1
MMI21 net25 net9 net57 VDD pch l=60n w=520.0n m=1
MMI32 net9 net5 net44 VDD pch l=60n w=520.0n m=1
MMI31 net44 net5 net33 VDD pch l=60n w=520.0n m=1
MMI7 net33 net5 VDD VDD pch l=60n w=520.0n m=1
MM7 net44 net5 net17 VSS nch_dnw l=60n w=390.0n m=1
MM6 net5 I VSS VSS nch_dnw l=60n w=390.0n m=1
MM5 net9 net5 net44 VSS nch_dnw l=60n w=390.0n m=1
MM4 net13 net9 net25 VSS nch_dnw l=60n w=390.0n m=1
MM3 net17 net5 VSS VSS nch_dnw l=60n w=390.0n m=1
MM2 net28 net9 VSS VSS nch_dnw l=60n w=390.0n m=1
MM1 net25 net9 net28 VSS nch_dnw l=60n w=390.0n m=1
MM0 Z net13 VSS VSS nch_dnw l=60n w=390.0n m=1
.ENDS

************************************************************************
* Library Name: IOlib
* Cell Name:    DNW_INR2D2
* View Name:    schematic
************************************************************************

.SUBCKT DNW_INR2D2 A1 B1 VDD VSS ZN
*.PININFO A1:I B1:I ZN:O VDD:B VSS:B
MMU6-M_u3 net5 A1 VDD VDD pch l=60n w=520.0n m=1
MMU1_0-M_u2 ZN B1 net36 VDD pch l=60n w=520.0n m=1
MMU1_0-M_u1 net36 net5 VDD VDD pch l=60n w=520.0n m=1
MMU1_1-M_u1 net25 net5 VDD VDD pch l=60n w=520.0n m=1
MMU1_1-M_u2 ZN B1 net25 VDD pch l=60n w=520.0n m=1
MM4 ZN B1 VSS VSS nch_dnw l=60n w=390.0n m=1
MM3 net5 A1 VSS VSS nch_dnw l=60n w=390.0n m=1
MM2 ZN net5 VSS VSS nch_dnw l=60n w=390.0n m=1
MM1 ZN net5 VSS VSS nch_dnw l=60n w=390.0n m=1
MM0 ZN B1 VSS VSS nch_dnw l=60n w=390.0n m=1
.ENDS

************************************************************************
* Library Name: IOlib
* Cell Name:    DNW_INVD1
* View Name:    schematic
************************************************************************

.SUBCKT DNW_INVD1 I VDD VSS ZN
*.PININFO I:I ZN:O VDD:B VSS:B
MMU1-M_u3 ZN I VDD VDD pch l=60n w=520.0n m=1
MM0 ZN I VSS VSS nch_dnw l=60n w=390.0n m=1
.ENDS

************************************************************************
* Library Name: IOlib
* Cell Name:    DNW_BUFFD2
* View Name:    schematic
************************************************************************

.SUBCKT DNW_BUFFD2 I VDD VSS Z
*.PININFO I:I Z:O VDD:B VSS:B
MM_u3_0-M_u3 Z net11 VDD VDD pch l=60n w=520.0n m=1
MM_u3_1-M_u3 Z net11 VDD VDD pch l=60n w=520.0n m=1
MM_u2-M_u3 net11 I VDD VDD pch l=60n w=520.0n m=1
MM2 Z net11 VSS VSS nch_dnw l=60n w=390.0n m=1
MM1 net11 I VSS VSS nch_dnw l=60n w=390.0n m=1
MM0 Z net11 VSS VSS nch_dnw l=60n w=390.0n m=1
.ENDS

************************************************************************
* Library Name: IOlib
* Cell Name:    DNW_NR2D1
* View Name:    schematic
************************************************************************

.SUBCKT DNW_NR2D1 A1 A2 VDD VSS ZN
*.PININFO A1:I A2:I ZN:O VDD:B VSS:B
MMI1-M_u1 net13 A2 VDD VDD pch l=60n w=520.0n m=1
MMI1-M_u2 ZN A1 net13 VDD pch l=60n w=520.0n m=1
MM1 ZN A1 VSS VSS nch_dnw l=60n w=390.0n m=1
MM0 ZN A2 VSS VSS nch_dnw l=60n w=390.0n m=1
.ENDS

************************************************************************
* Library Name: IOlib
* Cell Name:    DNW_ND2D1
* View Name:    schematic
************************************************************************

.SUBCKT DNW_ND2D1 A1 A2 VDD VSS ZN
*.PININFO A1:I A2:I ZN:O VDD:B VSS:B
MMI1-M_u1 ZN A1 VDD VDD pch l=60n w=520.0n m=1
MMI1-M_u2 ZN A2 VDD VDD pch l=60n w=520.0n m=1
MM1 net1 A2 VSS VSS nch_dnw l=60n w=390.0n m=1
MM0 ZN A1 net1 VSS nch_dnw l=60n w=390.0n m=1
.ENDS

************************************************************************
* Library Name: IOlib
* Cell Name:    PAD_SchmittTrigger
* View Name:    schematic
************************************************************************

.SUBCKT PAD_SchmittTrigger A DS IO Internal OUT_EN PEN UD VDDPST VSSPST Z Z_h
*.PININFO A:I DS:I OUT_EN:I PEN:I UD:I VDDPST:I VSSPST:I Z:O Z_h:O IO:B 
*.PININFO Internal:B
XI84 net226 VDDPST VSSPST net235 / DNW_DEL0
XI83 net229 VDDPST VSSPST net236 / DNW_DEL0
XI94 net213 VDDPST VSSPST net212 / DNW_DEL015
XI93 net212 VDDPST VSSPST net217 / DNW_DEL015
XI92 net217 VDDPST VSSPST net078 / DNW_DEL015
XI85 net020 VDDPST VSSPST net215 / DNW_DEL015
XI90 net223 VDDPST VSSPST net226 / DNW_DEL015
XI87 net219 VDDPST VSSPST net222 / DNW_DEL015
XI88 net222 VDDPST VSSPST net075 / DNW_DEL015
XI89 net075 VDDPST VSSPST net229 / DNW_DEL015
XI86 net215 VDDPST VSSPST net219 / DNW_DEL015
XI91 net078 VDDPST VSSPST net223 / DNW_DEL015
XI107 PEN UD VDDPST VSSPST net071 / DNW_INR2D2
XI108 net090 VDDPST VSSPST Z_h / DNW_INVD1
XI76 net058 VDDPST VSSPST net230 / DNW_INVD1
XI74 net250 VDDPST VSSPST net213 / DNW_INVD1
XI78 OUT_EN VDDPST VSSPST net251 / DNW_INVD1
XI75 net057 VDDPST VSSPST net227 / DNW_INVD1
XI77 DS VDDPST VSSPST net234 / DNW_INVD1
XI73 net249 VDDPST VSSPST net020 / DNW_INVD1
MM16 VSSPST net090 net066 VDDPST pch l=60n w=1.55u m=1
MM10 net090 Internal net066 VDDPST pch l=60n w=1.55u m=1
MM9 net066 Internal VDDPST VDDPST pch l=60n w=1.55u m=1
MM7 Internal net070 net069 VDDPST pch l=60n w=1.55u m=1
MM34 IO net237 VDDPST VDDPST pch l=60n w=1.55u m=36
MM32 IO net239 VDDPST VDDPST pch l=60n w=1.55u m=36
MM30 IO net241 VDDPST VDDPST pch l=60n w=1.55u m=8
MM20 IO net243 VDDPST VDDPST pch l=60n w=1.55u m=8
MM15 IO net245 VDDPST VDDPST pch l=60n w=1.55u m=6
MM14 IO net247 VDDPST VDDPST pch l=60n w=1.55u m=6
MM13 IO net209 VDDPST VDDPST pch l=60n w=1.55u m=6
XI80 net206 VDDPST VSSPST net250 / DNW_BUFFD2
XI81 net251 VDDPST VSSPST net232 / DNW_BUFFD2
XI79 net209 VDDPST VSSPST net249 / DNW_BUFFD2
XI82 Internal VDDPST VSSPST Z / DNW_BUFFD2
XI97 A net232 VDDPST VSSPST net206 / DNW_NR2D1
XI98 net234 net213 VDDPST VSSPST net057 / DNW_NR2D1
XI103 net213 net217 VDDPST VSSPST net246 / DNW_NR2D1
XI99 net227 net235 VDDPST VSSPST net238 / DNW_NR2D1
XI100 net227 net226 VDDPST VSSPST net240 / DNW_NR2D1
XI101 net213 net223 VDDPST VSSPST net242 / DNW_NR2D1
XI104 net213 net212 VDDPST VSSPST net248 / DNW_NR2D1
XI102 net213 net078 VDDPST VSSPST net244 / DNW_NR2D1
MM17 VDDPST net090 net025 VSSPST nch_dnw l=60n w=700n m=1
MM12 net025 Internal VSSPST VSSPST nch_dnw l=60n w=700n m=1
MM11 net090 Internal net025 VSSPST nch_dnw l=60n w=700n m=1
MM8 Internal net071 net092 VSSPST nch_dnw l=60n w=700n m=1
MM2 IO net246 VSSPST VSSPST nch_dnw l=60n w=700n m=6
MM1 IO net248 VSSPST VSSPST nch_dnw l=60n w=700n m=6
MM0 IO net206 VSSPST VSSPST nch_dnw l=60n w=700n m=6
MM5 IO net240 VSSPST VSSPST nch_dnw l=60n w=700n m=36
MM6 IO net238 VSSPST VSSPST nch_dnw l=60n w=700n m=36
MM3 IO net244 VSSPST VSSPST nch_dnw l=60n w=700n m=8
MM4 IO net242 VSSPST VSSPST nch_dnw l=60n w=700n m=8
DD0 Internal VDDPST pdio area=4.095e-10 pj=8.1e-05 m=1
XR0 VSSPST net092 rppolywo l=55.825u w=1u m=1
XR1 VDDPST net069 rppolywo l=55.825u w=1u m=1
XI106 PEN UD VDDPST VSSPST net070 / DNW_ND2D1
XI65 A OUT_EN VDDPST VSSPST net209 / DNW_ND2D1
XI66 DS net020 VDDPST VSSPST net058 / DNW_ND2D1
XI67 net020 net215 VDDPST VSSPST net247 / DNW_ND2D1
XI68 net020 net222 VDDPST VSSPST net243 / DNW_ND2D1
XI69 net020 net219 VDDPST VSSPST net245 / DNW_ND2D1
XI70 net020 net075 VDDPST VSSPST net241 / DNW_ND2D1
XI71 net230 net229 VDDPST VSSPST net239 / DNW_ND2D1
XI72 net230 net236 VDDPST VSSPST net237 / DNW_ND2D1
.ENDS

************************************************************************
* Library Name: IOlib
* Cell Name:    CMOS_IO_CUP_pad
* View Name:    schematic
************************************************************************

.SUBCKT CMOS_IO_CUP_pad A DS OUT_EN PAD PEN UD_B VDD VDDPST VSS VSSPST Z Z_h
*.PININFO A:I DS:I OUT_EN:I PEN:I UD_B:I Z:O Z_h:O PAD:B VDD:B VDDPST:B VSS:B 
*.PININFO VSSPST:B
XI13 A DS PAD Internal OUT_EN PEN UD_B VDDPST VSSPST Z Z_h / PAD_SchmittTrigger
XI3 PAD Internal VDD VDDPST VSS VSSPST / SF_1V2_CDM
.ENDS

************************************************************************
* Library Name: IOlib
* Cell Name:    SF_1V2_POWER_CLAMP_IO_SUPPLY
* View Name:    schematic
************************************************************************

.SUBCKT SF_1V2_POWER_CLAMP_IO_SUPPLY VDD VDDPST VSS VSSPST
*.PININFO VDD:B VDDPST:B VSS:B VSSPST:B
DD0 N0 VSSPST ndio area=5.45292e-11 pj=4e-05 m=1
DD1 VSSPST VDDPST ndio area=5.45292e-11 pj=4e-05 m=1
DD2 N1 VSSPST pdio area=2.60253e-11 pj=4e-05 m=1
DD3 N2 N1 pdio area=2.60253e-11 pj=4e-05 m=1
DD5 N3 N2 pdio area=5.20506e-11 pj=4e-05 m=1
DD6 VDDPST N3 pdio area=3.55266e-11 pj=4e-05 m=1
DD7 VSSPST VSS pdio area=3.55266e-11 pj=4e-05 m=1
DD8 VSS VSSPST pdio area=3.55266e-11 pj=4e-05 m=1
.ENDS

************************************************************************
* Library Name: IOlib
* Cell Name:    POWER_CUP_pad
* View Name:    schematic
************************************************************************

.SUBCKT POWER_CUP_pad VDD VDDPST VSS VSSPST
*.PININFO VDD:B VDDPST:B VSS:B VSSPST:B
XI0 VDD VDDPST VSS VSSPST / SF_1V2_POWER_CLAMP_IO_SUPPLY
XR0[9] VDD VDDPST rm2 l=2u w=1.2u m=1
XR0[8] VDD VDDPST rm2 l=2u w=1.2u m=1
XR0[7] VDD VDDPST rm2 l=2u w=1.2u m=1
XR0[6] VDD VDDPST rm2 l=2u w=1.2u m=1
XR0[5] VDD VDDPST rm2 l=2u w=1.2u m=1
XR0[4] VDD VDDPST rm2 l=2u w=1.2u m=1
XR0[3] VDD VDDPST rm2 l=2u w=1.2u m=1
XR0[2] VDD VDDPST rm2 l=2u w=1.2u m=1
XR0[1] VDD VDDPST rm2 l=2u w=1.2u m=1
XR0[0] VDD VDDPST rm2 l=2u w=1.2u m=1
.ENDS

************************************************************************
* Library Name: tcbn65lplvt
* Cell Name:    TIELLVT
* View Name:    schematic
************************************************************************

.SUBCKT TIELLVT VDD VSS ZN
*.PININFO ZN:O VDD:B VSS:B
MM_u2 ZN net5 VSS VSS nch_lvt l=60n w=410.0n m=1
MM_u1 net5 net5 VDD VDD pch_lvt l=60n w=540.0n m=1
.ENDS

************************************************************************
* Library Name: IOlib
* Cell Name:    SF_1V2_POWER_CLAMP_IO_GROUND
* View Name:    schematic
************************************************************************

.SUBCKT SF_1V2_POWER_CLAMP_IO_GROUND VDD VDDPST VSS VSSPST
*.PININFO VDD:B VDDPST:B VSS:B VSSPST:B
DD0 N0 VSSPST ndio area=5.45292e-11 pj=4e-05 m=1
DD1 VSSPST VDDPST ndio area=5.45292e-11 pj=4e-05 m=1
DD2 N1 VSSPST pdio area=2.60253e-11 pj=4e-05 m=1
DD3 N2 N1 pdio area=2.60253e-11 pj=4e-05 m=1
DD5 N3 N2 pdio area=5.20506e-11 pj=4e-05 m=1
DD6 VDDPST N3 pdio area=3.55266e-11 pj=4e-05 m=1
DD7 VSSPST VSS pdio area=3.55266e-11 pj=4e-05 m=1
DD8 VSS VSSPST pdio area=3.55266e-11 pj=4e-05 m=1
.ENDS

************************************************************************
* Library Name: IOlib
* Cell Name:    GROUND_CUP_pad
* View Name:    schematic
************************************************************************

.SUBCKT GROUND_CUP_pad VDD VDDPST VSS VSSPST
*.PININFO VDD:B VDDPST:B VSS:B VSSPST:B
XI0 VDD VDDPST VSS VSSPST / SF_1V2_POWER_CLAMP_IO_GROUND
.ENDS

************************************************************************
* Library Name: tcbn65lp_dnw
* Cell Name:    DCAP32
* View Name:    schematic
************************************************************************

.SUBCKT DCAP32 VDD VSS
*.PININFO VDD:B VSS:B
MMI33 VDD net5 VDD VDD pch l=975.00n w=430.0n m=1
MM_u1 net11 net5 VDD VDD pch l=60n w=390.0n m=1
MMI34 VDD net5 VDD VDD pch l=975.00n w=430.0n m=1
MMI35 VDD net5 VDD VDD pch l=975.00n w=430.0n m=1
MMI32 VDD net5 VDD VDD pch l=975.00n w=430.0n m=1
MMI26 VDD net5 VDD VDD pch l=975.00n w=430.0n m=1
MMI38 VSS net11 VSS VSS nch_dnw l=975.00n w=300n m=1
MMI6 VSS net11 VSS VSS nch_dnw l=975.00n w=300n m=1
MMI39 VSS net11 VSS VSS nch_dnw l=975.00n w=300n m=1
MMI37 VSS net11 VSS VSS nch_dnw l=975.00n w=300n m=1
MM_u2 net5 net11 VSS VSS nch_dnw l=60n w=300n m=1
MMI36 VSS net11 VSS VSS nch_dnw l=975.00n w=300n m=1
.ENDS

************************************************************************
* Library Name: tcbn65lp_dnw
* Cell Name:    DCAP16
* View Name:    schematic
************************************************************************

.SUBCKT DCAP16 VDD VSS
*.PININFO VDD:B VSS:B
MMI3 VDD net5 VDD VDD pch l=690.0n w=430.0n m=1
MMI6 VDD net5 VDD VDD pch l=690.0n w=430.0n m=1
MM_u1 net11 net5 VDD VDD pch l=60n w=390.0n m=1
MMI5 VDD net5 VDD VDD pch l=690.0n w=430.0n m=1
MMI4 VSS net11 VSS VSS nch_dnw l=690.0n w=300n m=1
MMI8 VSS net11 VSS VSS nch_dnw l=690.0n w=300n m=1
MM_u2 net5 net11 VSS VSS nch_dnw l=60n w=300n m=1
MMI7 VSS net11 VSS VSS nch_dnw l=690.0n w=300n m=1
.ENDS

************************************************************************
* Library Name: CoRDIA_ADC_01
* Cell Name:    DECAP_UNIT
* View Name:    schematic
************************************************************************

.SUBCKT DECAP_UNIT VDD VSS
*.PININFO VDD:B VSS:B
XI0[77] VDD VSS / DCAP32
XI0[76] VDD VSS / DCAP32
XI0[75] VDD VSS / DCAP32
XI0[74] VDD VSS / DCAP32
XI0[73] VDD VSS / DCAP32
XI0[72] VDD VSS / DCAP32
XI0[71] VDD VSS / DCAP32
XI0[70] VDD VSS / DCAP32
XI0[69] VDD VSS / DCAP32
XI0[68] VDD VSS / DCAP32
XI0[67] VDD VSS / DCAP32
XI0[66] VDD VSS / DCAP32
XI0[65] VDD VSS / DCAP32
XI0[64] VDD VSS / DCAP32
XI0[63] VDD VSS / DCAP32
XI0[62] VDD VSS / DCAP32
XI0[61] VDD VSS / DCAP32
XI0[60] VDD VSS / DCAP32
XI0[59] VDD VSS / DCAP32
XI0[58] VDD VSS / DCAP32
XI0[57] VDD VSS / DCAP32
XI0[56] VDD VSS / DCAP32
XI0[55] VDD VSS / DCAP32
XI0[54] VDD VSS / DCAP32
XI0[53] VDD VSS / DCAP32
XI0[52] VDD VSS / DCAP32
XI0[51] VDD VSS / DCAP32
XI0[50] VDD VSS / DCAP32
XI0[49] VDD VSS / DCAP32
XI0[48] VDD VSS / DCAP32
XI0[47] VDD VSS / DCAP32
XI0[46] VDD VSS / DCAP32
XI0[45] VDD VSS / DCAP32
XI0[44] VDD VSS / DCAP32
XI0[43] VDD VSS / DCAP32
XI0[42] VDD VSS / DCAP32
XI0[41] VDD VSS / DCAP32
XI0[40] VDD VSS / DCAP32
XI0[39] VDD VSS / DCAP32
XI0[38] VDD VSS / DCAP32