* Complete FRIDA ADC netlist - concatenated from all subcircuits
* Generated by concat_netlists.py

.INCLUDE /eda/kits/TSMC/65LP/2024/digital/Back_End/spice/tcbn65lplvt_200a/tcbn65lplvt_200a.spi
.INCLUDE /eda/kits/TSMC/65LP/2024/digital/Back_End/spice/tcbn65lp_200a/tcbn65lp_200a.spi

* ========== sampswitch.cdl ==========
* Sampling switch implementation with PMOS/NMOS pair
* Drains and sources connected, gates driven by opposite polarity

.SUBCKT sampswitch vin vout clk clk_b vdd_a vss_a
*.PININFO vin:I vout:O clk:I clk_b:I vdd_a:B vss_a:B

Mp1 vout clk_b vin vdd_a pch_lvt l=60n w=5u m=1
Mn1 vout clk vin vss_a nch_lvt l=60n w=4u m=1

.ENDS sampswitch


* ========== comp.cdl ==========
************************************************************************ 
* Library Name:  frida
* Top Cell Name: comp
* View Name:     schematic
************************************************************************

*.BUSDELIMITER [

************************************************************************
* Library Name: frida
* Cell Name:    comp_inverter_lvil
* View Name:    schematic
************************************************************************

.SUBCKT comp_inverter_lvil GND IN OUT VDD
*.PININFO IN:I OUT:O GND:B VDD:B
MMN OUT IN GND GND nch_lvt l=60n w=390.0n m=1
MMP OUT IN VDD VDD pch_hvt l=60n w=520.0n m=1
.ENDS comp_inverter_lvil

************************************************************************
* Library Name: frida
* Cell Name:    comp_sr
* View Name:    schematic
************************************************************************

.SUBCKT comp_sr COMP_N COMP_P GND LATCH_N LATCH_P VDD
*.PININFO COMP_N:I COMP_P:I LATCH_N:O LATCH_P:O GND:B VDD:B

* cross coupler nor gates
XI30 net41 net38 net35 VDD GND / NR2D2
XI31 net35 net42 net38 VDD GND / NR2D2

* 1st stage buffers
XI45 net35 net39 VDD GND / CKND4
XI48 net38 net40 VDD GND / CKND4

* 2nd stage buffers
XI46 net39 LATCH_P VDD GND / CKND8
XI47 net40 LATCH_N VDD GND / CKND8

XI22 GND COMP_P net41 VDD / comp_inverter_lvil
XI0 GND COMP_N net42 VDD / comp_inverter_lvil
XI1[5] VDD GND / DCAP8
XI1[4] VDD GND / DCAP8
XI1[3] VDD GND / DCAP8
XI1[2] VDD GND / DCAP8
XI1[1] VDD GND / DCAP8
XI1[0] VDD GND / DCAP8
.ENDS comp_sr

************************************************************************
* Library Name: frida
* Cell Name:    comp_latch
* View Name:    schematic
************************************************************************

.SUBCKT comp_latch CLK GND INN INP OUTN OUTP VDD
*.PININFO CLK:I INN:I INP:I OUTN:O OUTP:O GND:B VDD:B
MM0 tail CLK GND GND nch_lvt l=800n w=550.0n m=1
MM2 net037 INN tail GND nch_lvt l=300n w=1.1u m=4
MM8[3] tail GND GND GND nch_lvt l=60n w=1.1u m=1
MM8[2] tail GND GND GND nch_lvt l=60n w=1.1u m=1
MM8[1] tail GND GND GND nch_lvt l=60n w=1.1u m=1
MM8[0] tail GND GND GND nch_lvt l=60n w=1.1u m=1
MM1 net031 INP tail GND nch_lvt l=300n w=1.1u m=4
MM3 OUTN OUTP net031 GND nch_lvt l=350.0n w=750.0n m=4
MM4 OUTP OUTN net037 GND nch_lvt l=350.0n w=750.0n m=4
MS2 net037 CLK VDD VDD pch_lvt l=60n w=500n m=2
MS4 OUTP CLK VDD VDD pch_lvt l=60n w=500n m=2
MS1 net031 CLK VDD VDD pch_lvt l=60n w=500n m=2
MM7 tail CLK VDD VDD pch_lvt l=60n w=500n m=1
MM6 OUTP OUTN VDD VDD pch_lvt l=1u w=2u m=2
MM5 OUTN OUTP VDD VDD pch_lvt l=1u w=2u m=2
MS3 OUTN CLK VDD VDD pch_lvt l=60n w=500n m=2
.ENDS comp_latch

************************************************************************
* Library Name: frida
* Cell Name:    comp
* View Name:    schematic
************************************************************************

.SUBCKT comp vin_p vin_n dout_p dout_n clk vdd_a vss_a
*.PININFO vin_p:I vin_n:I dout_p:O dout_n:O clk:I vdd_a:B vss_a:B
XI3 COMP_N COMP_P vss_a dout_n dout_p vdd_a / comp_sr
XLATCH clk vss_a vin_n vin_p COMP_N COMP_P vdd_a / comp_latch
.ENDS comp

* ========== capdriver.cdl ==========
* Function explanation:
* - XOR gates implement: dac_drive[i] = dac_state[i] XOR dac_drive_invert
* - When dac_drive_invert = 0: dac_drive[i] = dac_state[i] (buffer mode)
* - When dac_drive_invert = 1: dac_drive[i] = ~dac_state[i] (invert mode)
*
* Control signal behavior (dac_drive_invert is active high):
* - dac_drive_invert = 0: Output direct DAC state (normal operation)
* - dac_drive_invert = 1: Output inverted DAC state (differential mode)
*
* Driver sizing rationale:
* - Bits 15-14 (MSBs): 2x CKXOR2D4LVT = ~8x drive strength (largest capacitors)
* - Bits 13-12: 1x CKXOR2D4LVT = ~4x drive strength (large capacitors)
* - Bits 11-0: 1x CKXOR2D2LVT = ~2x drive strength (smaller capacitors)
*
* This provides binary-weighted drive strength that matches the binary-weighted
* capacitor array structure typical in SAR ADC designs.

*.BUSDELIMITER [

.SUBCKT capdriver dac_state[15] dac_state[14] dac_state[13] dac_state[12] dac_state[11] dac_state[10] dac_state[9] dac_state[8] dac_state[7] dac_state[6] dac_state[5] dac_state[4] dac_state[3] dac_state[2] dac_state[1] dac_state[0] dac_drive_invert dac_drive[15] dac_drive[14] dac_drive[13] dac_drive[12] dac_drive[11] dac_drive[10] dac_drive[9] dac_drive[8] dac_drive[7] dac_drive[6] dac_drive[5] dac_drive[4] dac_drive[3] dac_drive[2] dac_drive[1] dac_drive[0] vdd_dac vss_dac
*.PININFO dac_state[15]:I dac_state[14]:I dac_state[13]:I dac_state[12]:I dac_state[11]:I dac_state[10]:I dac_state[9]:I dac_state[8]:I dac_state[7]:I dac_state[6]:I dac_state[5]:I dac_state[4]:I dac_state[3]:I dac_state[2]:I dac_state[1]:I dac_state[0]:I dac_drive_invert:I dac_drive[15]:O dac_drive[14]:O dac_drive[13]:O dac_drive[12]:O dac_drive[11]:O dac_drive[10]:O dac_drive[9]:O dac_drive[8]:O dac_drive[7]:O dac_drive[6]:O dac_drive[5]:O dac_drive[4]:O dac_drive[3]:O dac_drive[2]:O dac_drive[1]:O dac_drive[0]:O vdd_dac:B vss_dac:B

Xxor15_0 dac_drive_invert dac_state[15] dac_drive[15] vdd_dac vss_dac / CKXOR2D4LVT
Xxor15_1 dac_drive_invert dac_state[15] dac_drive[15] vdd_dac vss_dac / CKXOR2D4LVT
Xxor14_0 dac_drive_invert dac_state[14] dac_drive[14] vdd_dac vss_dac / CKXOR2D4LVT
Xxor14_1 dac_drive_invert dac_state[14] dac_drive[14] vdd_dac vss_dac / CKXOR2D4LVT
Xxor13 dac_drive_invert dac_state[13] dac_drive[13] vdd_dac vss_dac / CKXOR2D4LVT
Xxor12 dac_drive_invert dac_state[12] dac_drive[12] vdd_dac vss_dac / CKXOR2D4LVT
Xxor11 dac_drive_invert dac_state[11] dac_drive[11] vdd_dac vss_dac / CKXOR2D2LVT
Xxor10 dac_drive_invert dac_state[10] dac_drive[10] vdd_dac vss_dac / CKXOR2D2LVT
Xxor9 dac_drive_invert dac_state[9] dac_drive[9] vdd_dac vss_dac / CKXOR2D2LVT
Xxor8 dac_drive_invert dac_state[8] dac_drive[8] vdd_dac vss_dac / CKXOR2D2LVT
Xxor7 dac_drive_invert dac_state[7] dac_drive[7] vdd_dac vss_dac / CKXOR2D2LVT
Xxor6 dac_drive_invert dac_state[6] dac_drive[6] vdd_dac vss_dac / CKXOR2D2LVT
Xxor5 dac_drive_invert dac_state[5] dac_drive[5] vdd_dac vss_dac / CKXOR2D2LVT
Xxor4 dac_drive_invert dac_state[4] dac_drive[4] vdd_dac vss_dac / CKXOR2D2LVT
Xxor3 dac_drive_invert dac_state[3] dac_drive[3] vdd_dac vss_dac / CKXOR2D2LVT
Xxor2 dac_drive_invert dac_state[2] dac_drive[2] vdd_dac vss_dac / CKXOR2D2LVT
Xxor1 dac_drive_invert dac_state[1] dac_drive[1] vdd_dac vss_dac / CKXOR2D2LVT
Xxor0 dac_drive_invert dac_state[0] dac_drive[0] vdd_dac vss_dac / CKXOR2D2LVT

.ENDS capdriver

* ========== caparray.cdl ==========
*.BUSDELIMITER [

.SUBCKT caparray cap_topplate cap_shieldplate cap_botplate_main[15] cap_botplate_main[14] cap_botplate_main[13] cap_botplate_main[12] cap_botplate_main[11] cap_botplate_main[10] cap_botplate_main[9] cap_botplate_main[8] cap_botplate_main[7] cap_botplate_main[6] cap_botplate_main[5] cap_botplate_main[4] cap_botplate_main[3] cap_botplate_main[2] cap_botplate_main[1] cap_botplate_main[0] cap_botplate_diff[15] cap_botplate_diff[14] cap_botplate_diff[13] cap_botplate_diff[12] cap_botplate_diff[11] cap_botplate_diff[10] cap_botplate_diff[9] cap_botplate_diff[8] cap_botplate_diff[7] cap_botplate_diff[6] cap_botplate_diff[5] cap_botplate_diff[4] cap_botplate_diff[3] cap_botplate_diff[2] cap_botplate_diff[1] cap_botplate_diff[0]
*.PININFO cap_topplate:B cap_shieldplate:B cap_botplate_main[15]:B cap_botplate_main[14]:B cap_botplate_main[13]:B cap_botplate_main[12]:B cap_botplate_main[11]:B cap_botplate_main[10]:B cap_botplate_main[9]:B cap_botplate_main[8]:B cap_botplate_main[7]:B cap_botplate_main[6]:B cap_botplate_main[5]:B cap_botplate_main[4]:B cap_botplate_main[3]:B cap_botplate_main[2]:B cap_botplate_main[1]:B cap_botplate_main[0]:B cap_botplate_diff[15]:B cap_botplate_diff[14]:B cap_botplate_diff[13]:B cap_botplate_diff[12]:B cap_botplate_diff[11]:B cap_botplate_diff[10]:B cap_botplate_diff[9]:B cap_botplate_diff[8]:B cap_botplate_diff[7]:B cap_botplate_diff[6]:B cap_botplate_diff[5]:B cap_botplate_diff[4]:B cap_botplate_diff[3]:B cap_botplate_diff[2]:B cap_botplate_diff[1]:B cap_botplate_diff[0]:B

* Weighted capacitor array implementation  
* Weights: [768, 512, 320, 192, 96, 64, 32, 24, 12, 10, 5, 4, 4, 2, 1, 1] fF

* Main and Diff capacitors based on exact weight calculations
* Weight 768: 768/64 = 12, so 12*0.4*(65+64) = 619.2f main, 12*0.4*(65-64) = 4.8f diff
Cmain15 cap_topplate cap_botplate_main[15] capacitor c=619.2f
Cdiff15 cap_topplate cap_botplate_diff[15] capacitor c=4.8f

* Weight 512: 512/64 = 8, so 8*0.4*(65+64) = 412.8f main, 8*0.4*(65-64) = 3.2f diff
Cmain14 cap_topplate cap_botplate_main[14] capacitor c=412.8f
Cdiff14 cap_topplate cap_botplate_diff[14] capacitor c=3.2f

* Weight 320: 320/64 = 5, so 5*0.4*(65+64) = 258f main, 5*0.4*(65-64) = 2f diff
Cmain13 cap_topplate cap_botplate_main[13] capacitor c=258f
Cdiff13 cap_topplate cap_botplate_diff[13] capacitor c=2f

* Weight 192: 192/64 = 3, so 3*0.4*(65+64) = 154.8f main, 3*0.4*(65-64) = 1.2f diff
Cmain12 cap_topplate cap_botplate_main[12] capacitor c=154.8f
Cdiff12 cap_topplate cap_botplate_diff[12] capacitor c=1.2f

* Weight 96: 64+32, so 0.4*(65+64)+0.4*(65+32) = 90.4f main, 0.4*(65-64)+0.4*(65-32) = 13.6f diff
Cmain11 cap_topplate cap_botplate_main[11] capacitor c=90.4f
Cdiff11 cap_topplate cap_botplate_diff[11] capacitor c=13.6f

* Weight 64: Single 64 section, 0.4*(65+64) = 51.6f main, 0.4*(65-64) = 0.4f diff
Cmain10 cap_topplate cap_botplate_main[10] capacitor c=51.6f
Cdiff10 cap_topplate cap_botplate_diff[10] capacitor c=0.4f

* Weight 32: 0.4*(65+32) = 38.8f main, 0.4*(65-32) = 13.2f diff
Cmain9 cap_topplate cap_botplate_main[9] capacitor c=38.8f
Cdiff9 cap_topplate cap_botplate_diff[9] capacitor c=13.2f

* Weight 24: 0.4*(65+24) = 35.6f main, 0.4*(65-24) = 16.4f diff
Cmain8 cap_topplate cap_botplate_main[8] capacitor c=35.6f
Cdiff8 cap_topplate cap_botplate_diff[8] capacitor c=16.4f

* Weight 12: 0.4*(65+12) = 30.8f main, 0.4*(65-12) = 21.2f diff
Cmain7 cap_topplate cap_botplate_main[7] capacitor c=30.8f
Cdiff7 cap_topplate cap_botplate_diff[7] capacitor c=21.2f

* Weight 10: 0.4*(65+10) = 30f main, 0.4*(65-10) = 22f diff
Cmain6 cap_topplate cap_botplate_main[6] capacitor c=30f
Cdiff6 cap_topplate cap_botplate_diff[6] capacitor c=22f

* Weight 5: 0.4*(65+5) = 28f main, 0.4*(65-5) = 24f diff
Cmain5 cap_topplate cap_botplate_main[5] capacitor c=28f
Cdiff5 cap_topplate cap_botplate_diff[5] capacitor c=24f

* Weight 4: 0.4*(65+4) = 27.6f main, 0.4*(65-4) = 24.4f diff
Cmain4 cap_topplate cap_botplate_main[4] capacitor c=27.6f
Cdiff4 cap_topplate cap_botplate_diff[4] capacitor c=24.4f

* Weight 4: Same as above
Cmain3 cap_topplate cap_botplate_main[3] capacitor c=27.6f
Cdiff3 cap_topplate cap_botplate_diff[3] capacitor c=24.4f

* Weight 2: 0.4*(65+2) = 26.8f main, 0.4*(65-2) = 25.2f diff
Cmain2 cap_topplate cap_botplate_main[2] capacitor c=26.8f
Cdiff2 cap_topplate cap_botplate_diff[2] capacitor c=25.2f

* Weight 1: 0.4*(65+1) = 26.4f main, 0.4*(65-1) = 25.6f diff
Cmain1 cap_topplate cap_botplate_main[1] capacitor c=26.4f
Cdiff1 cap_topplate cap_botplate_diff[1] capacitor c=25.6f

* Weight 1: Same as above
Cmain0 cap_topplate cap_botplate_main[0] capacitor c=26.4f
Cdiff0 cap_topplate cap_botplate_diff[0] capacitor c=25.6f

.ENDS caparray

* ========== adc_digital.cdl ==========
* CDL Netlist generated by OpenROAD

*.BUSDELIMITER [

.SUBCKT adc_digital seq_init seq_samp seq_comp seq_update en_init en_samp_p en_samp_n en_comp en_update dac_mode dac_diffcaps dac_astate_p[15] dac_astate_p[14] dac_astate_p[13] dac_astate_p[12] dac_astate_p[11] dac_astate_p[10] dac_astate_p[9] dac_astate_p[8] dac_astate_p[7] dac_astate_p[6] dac_astate_p[5] dac_astate_p[4] dac_astate_p[3] dac_astate_p[2] dac_astate_p[1] dac_astate_p[0] dac_bstate_p[15] dac_bstate_p[14] dac_bstate_p[13] dac_bstate_p[12] dac_bstate_p[11] dac_bstate_p[10] dac_bstate_p[9] dac_bstate_p[8] dac_bstate_p[7] dac_bstate_p[6] dac_bstate_p[5] dac_bstate_p[4] dac_bstate_p[3] dac_bstate_p[2] dac_bstate_p[1] dac_bstate_p[0] dac_astate_n[15] dac_astate_n[14] dac_astate_n[13] dac_astate_n[12] dac_astate_n[11] dac_astate_n[10] dac_astate_n[9] dac_astate_n[8] dac_astate_n[7] dac_astate_n[6] dac_astate_n[5] dac_astate_n[4] dac_astate_n[3] dac_astate_n[2] dac_astate_n[1] dac_astate_n[0] dac_bstate_n[15] dac_bstate_n[14] dac_bstate_n[13] dac_bstate_n[12] dac_bstate_n[11] dac_bstate_n[10] dac_bstate_n[9] dac_bstate_n[8] dac_bstate_n[7] dac_bstate_n[6] dac_bstate_n[5] dac_bstate_n[4] dac_bstate_n[3] dac_bstate_n[2] dac_bstate_n[1] dac_bstate_n[0] comp_out_p comp_out_n clk_samp_p clk_samp_p_b clk_samp_n clk_samp_n_b clk_comp dac_state_p_main[15] dac_state_p_main[14] dac_state_p_main[13] dac_state_p_main[12] dac_state_p_main[11] dac_state_p_main[10] dac_state_p_main[9] dac_state_p_main[8] dac_state_p_main[7] dac_state_p_main[6] dac_state_p_main[5] dac_state_p_main[4] dac_state_p_main[3] dac_state_p_main[2] dac_state_p_main[1] dac_state_p_main[0] dac_state_p_diff[15] dac_state_p_diff[14] dac_state_p_diff[13] dac_state_p_diff[12] dac_state_p_diff[11] dac_state_p_diff[10] dac_state_p_diff[9] dac_state_p_diff[8] dac_state_p_diff[7] dac_state_p_diff[6] dac_state_p_diff[5] dac_state_p_diff[4] dac_state_p_diff[3] dac_state_p_diff[2] dac_state_p_diff[1] dac_state_p_diff[0] dac_state_n_main[15] dac_state_n_main[14] dac_state_n_main[13] dac_state_n_main[12] dac_state_n_main[11] dac_state_n_main[10] dac_state_n_main[9] dac_state_n_main[8] dac_state_n_main[7] dac_state_n_main[6] dac_state_n_main[5] dac_state_n_main[4] dac_state_n_main[3] dac_state_n_main[2] dac_state_n_main[1] dac_state_n_main[0] dac_state_n_diff[15] dac_state_n_diff[14] dac_state_n_diff[13] dac_state_n_diff[12] dac_state_n_diff[11] dac_state_n_diff[10] dac_state_n_diff[9] dac_state_n_diff[8] dac_state_n_diff[7] dac_state_n_diff[6] dac_state_n_diff[5] dac_state_n_diff[4] dac_state_n_diff[3] dac_state_n_diff[2] dac_state_n_diff[1] dac_state_n_diff[0] dac_invert_p_main dac_invert_p_diff dac_invert_n_main dac_invert_n_diff comp_out vdd_d vss_d
*.PININFO seq_init:I seq_samp:I seq_comp:I seq_update:I en_init:I en_samp_p:I en_samp_n:I en_comp:I en_update:I dac_mode:I dac_diffcaps:I dac_astate_p[15]:I dac_astate_p[14]:I dac_astate_p[13]:I dac_astate_p[12]:I dac_astate_p[11]:I dac_astate_p[10]:I dac_astate_p[9]:I dac_astate_p[8]:I dac_astate_p[7]:I dac_astate_p[6]:I dac_astate_p[5]:I dac_astate_p[4]:I dac_astate_p[3]:I dac_astate_p[2]:I dac_astate_p[1]:I dac_astate_p[0]:I dac_bstate_p[15]:I dac_bstate_p[14]:I dac_bstate_p[13]:I dac_bstate_p[12]:I dac_bstate_p[11]:I dac_bstate_p[10]:I dac_bstate_p[9]:I dac_bstate_p[8]:I dac_bstate_p[7]:I dac_bstate_p[6]:I dac_bstate_p[5]:I dac_bstate_p[4]:I dac_bstate_p[3]:I dac_bstate_p[2]:I dac_bstate_p[1]:I dac_bstate_p[0]:I dac_astate_n[15]:I dac_astate_n[14]:I dac_astate_n[13]:I dac_astate_n[12]:I dac_astate_n[11]:I dac_astate_n[10]:I dac_astate_n[9]:I dac_astate_n[8]:I dac_astate_n[7]:I dac_astate_n[6]:I dac_astate_n[5]:I dac_astate_n[4]:I dac_astate_n[3]:I dac_astate_n[2]:I dac_astate_n[1]:I dac_astate_n[0]:I dac_bstate_n[15]:I dac_bstate_n[14]:I dac_bstate_n[13]:I dac_bstate_n[12]:I dac_bstate_n[11]:I dac_bstate_n[10]:I dac_bstate_n[9]:I dac_bstate_n[8]:I dac_bstate_n[7]:I dac_bstate_n[6]:I dac_bstate_n[5]:I dac_bstate_n[4]:I dac_bstate_n[3]:I dac_bstate_n[2]:I dac_bstate_n[1]:I dac_bstate_n[0]:I comp_out_p:I comp_out_n:I clk_samp_p:O clk_samp_p_b:O clk_samp_n:O clk_samp_n_b:O clk_comp:O dac_state_p_main[15]:O dac_state_p_main[14]:O dac_state_p_main[13]:O dac_state_p_main[12]:O dac_state_p_main[11]:O dac_state_p_main[10]:O dac_state_p_main[9]:O dac_state_p_main[8]:O dac_state_p_main[7]:O dac_state_p_main[6]:O dac_state_p_main[5]:O dac_state_p_main[4]:O dac_state_p_main[3]:O dac_state_p_main[2]:O dac_state_p_main[1]:O dac_state_p_main[0]:O dac_state_p_diff[15]:O dac_state_p_diff[14]:O dac_state_p_diff[13]:O dac_state_p_diff[12]:O dac_state_p_diff[11]:O dac_state_p_diff[10]:O dac_state_p_diff[9]:O dac_state_p_diff[8]:O dac_state_p_diff[7]:O dac_state_p_diff[6]:O dac_state_p_diff[5]:O dac_state_p_diff[4]:O dac_state_p_diff[3]:O dac_state_p_diff[2]:O dac_state_p_diff[1]:O dac_state_p_diff[0]:O dac_state_n_main[15]:O dac_state_n_main[14]:O dac_state_n_main[13]:O dac_state_n_main[12]:O dac_state_n_main[11]:O dac_state_n_main[10]:O dac_state_n_main[9]:O dac_state_n_main[8]:O dac_state_n_main[7]:O dac_state_n_main[6]:O dac_state_n_main[5]:O dac_state_n_main[4]:O dac_state_n_main[3]:O dac_state_n_main[2]:O dac_state_n_main[1]:O dac_state_n_main[0]:O dac_state_n_diff[15]:O dac_state_n_diff[14]:O dac_state_n_diff[13]:O dac_state_n_diff[12]:O dac_state_n_diff[11]:O dac_state_n_diff[10]:O dac_state_n_diff[9]:O dac_state_n_diff[8]:O dac_state_n_diff[7]:O dac_state_n_diff[6]:O dac_state_n_diff[5]:O dac_state_n_diff[4]:O dac_state_n_diff[3]:O dac_state_n_diff[2]:O dac_state_n_diff[1]:O dac_state_n_diff[0]:O dac_invert_p_main:O dac_invert_p_diff:O dac_invert_n_main:O dac_invert_n_diff:O comp_out:O vdd_d:B vss_d:B

Xinput47 dac_bstate_n[4] net47 vdd_d vss_d BUFFD2LVT
Xplace139 salogic_dual_dac_ff[9].dac_state_p_ff.D net139
+ vdd_d vss_d CKBD2LVT
X_03_ dac_diffcaps net71 vdd_d vss_d BUFFD0LVT
Xinput46 dac_bstate_n[3] net46 vdd_d vss_d BUFFD2LVT
X_05_ dac_diffcaps net72 vdd_d vss_d BUFFD0LVT
Xinput45 dac_bstate_n[2] net45 vdd_d vss_d BUFFD2LVT
Xplace148 clk_init net148 vdd_d vss_d CKBD2LVT
Xclkbuf_2_2_f_clk_update clknet_0_clk_update clknet_2_2_leaf_clk_update
+ vdd_d vss_d BUFFD12LVT
Xclkload0 clknet_2_1_leaf_clk_update _unconnected_0 vdd_d
+ vss_d INVD1LVT
Xclkload2 clknet_2_3_leaf_clk_update _unconnected_1 vdd_d
+ vss_d INVD0LVT
Xplace140 salogic_dual_dac_ff[7].dac_state_n_ff.D net140
+ vdd_d vss_d CKBD2LVT
Xplace142 salogic_dual_dac_ff[5].dac_state_n_ff.D net142
+ vdd_d vss_d CKBD2LVT
Xplace144 net105 net144 vdd_d vss_d CKBD2LVT
Xplace146 salogic_dual_032_ net146 vdd_d vss_d CKBD2LVT
Xplace149 net148 net149 vdd_d vss_d CKBD2LVT
Xclkbuf_2_0_f_clk_update clknet_0_clk_update clknet_2_0_leaf_clk_update
+ vdd_d vss_d BUFFD12LVT
Xclkbuf_0_clk_update clk_update clknet_0_clk_update vdd_d
+ vss_d BUFFD12LVT
Xclkbuf_2_3_f_clk_update clknet_0_clk_update clknet_2_3_leaf_clk_update
+ vdd_d vss_d BUFFD12LVT
Xclkload1 clknet_2_2_leaf_clk_update _unconnected_2 vdd_d
+ vss_d INVD0LVT
Xplace141 salogic_dual_dac_ff[6].dac_state_n_ff.D net141
+ vdd_d vss_d CKBD2LVT
Xplace143 salogic_dual_dac_ff[4].dac_state_n_ff.D net143
+ vdd_d vss_d CKBD2LVT
Xplace145 salogic_dual_041_ net145 vdd_d vss_d CKBD2LVT
Xplace147 salogic_dual_032_ net147 vdd_d vss_d CKBD2LVT
Xplace150 net69 net150 vdd_d vss_d CKBD2LVT
Xclkbuf_2_1_f_clk_update clknet_0_clk_update clknet_2_1_leaf_clk_update
+ vdd_d vss_d BUFFD12LVT
Xclkgate_clkgate_comp.clkgate_cell _unconnected_3 en_comp
+ seq_comp clk_comp vdd_d vss_d CKLNQD1LVT
Xclkgate_clkgate_init.clkgate_cell _unconnected_4 en_init
+ seq_init clk_init vdd_d vss_d CKLNQD1LVT
Xclkgate_clkgate_samp_n.clkgate_cell _unconnected_5 en_samp_n
+ seq_samp clk_samp_n_raw vdd_d vss_d CKLNQD1LVT
Xclkgate_clkgate_samp_p.clkgate_cell _unconnected_6 en_samp_p
+ seq_samp clk_samp_p_raw vdd_d vss_d CKLNQD1LVT
Xclkgate_clkgate_update.clkgate_cell _unconnected_7 en_update
+ seq_update clk_update vdd_d vss_d CKLNQD1LVT
Xsalogic_dual_174_ salogic_dual_dac_cycle[1] salogic_dual_015_
+ vdd_d vss_d CKND0LVT
Xinput44 dac_bstate_n[1] net44 vdd_d vss_d BUFFD2LVT
Xsalogic_dual_176_ salogic_dual_015_ net149 salogic_dual_000_
+ vdd_d vss_d NR2D0LVT
Xsalogic_dual_177_ salogic_dual_dac_cycle[11] salogic_dual_017_
+ vdd_d vss_d CKND0LVT
Xsalogic_dual_178_ salogic_dual_017_ net149 salogic_dual_001_
+ vdd_d vss_d NR2D0LVT
Xsalogic_dual_179_ salogic_dual_dac_cycle[12] salogic_dual_018_
+ vdd_d vss_d CKND0LVT
Xsalogic_dual_180_ salogic_dual_018_ net149 salogic_dual_002_
+ vdd_d vss_d NR2D0LVT
Xsalogic_dual_181_ salogic_dual_dac_cycle[13] salogic_dual_019_
+ vdd_d vss_d CKND0LVT
Xsalogic_dual_182_ salogic_dual_019_ net149 salogic_dual_003_
+ vdd_d vss_d NR2D0LVT
Xsalogic_dual_183_ salogic_dual_dac_cycle[14] salogic_dual_020_
+ vdd_d vss_d CKND0LVT
Xsalogic_dual_184_ salogic_dual_020_ net148 salogic_dual_004_
+ vdd_d vss_d NR2D0LVT
Xsalogic_dual_185_ salogic_dual_dac_cycle[15] salogic_dual_021_
+ vdd_d vss_d CKND0LVT
Xsalogic_dual_186_ salogic_dual_021_ net148 salogic_dual_005_
+ vdd_d vss_d NR2D0LVT
Xsalogic_dual_187_ salogic_dual_dac_cycle[2] salogic_dual_022_
+ vdd_d vss_d CKND0LVT
Xsalogic_dual_188_ salogic_dual_022_ net149 salogic_dual_006_
+ vdd_d vss_d NR2D0LVT
Xsalogic_dual_189_ salogic_dual_dac_cycle[3] salogic_dual_023_
+ vdd_d vss_d CKND0LVT
Xsalogic_dual_190_ salogic_dual_023_ net149 salogic_dual_007_
+ vdd_d vss_d NR2D0LVT
Xsalogic_dual_191_ salogic_dual_dac_cycle[4] salogic_dual_024_
+ vdd_d vss_d CKND0LVT
Xsalogic_dual_192_ salogic_dual_024_ net148 salogic_dual_008_
+ vdd_d vss_d NR2D0LVT
Xsalogic_dual_193_ salogic_dual_dac_cycle[5] salogic_dual_025_
+ vdd_d vss_d CKND0LVT
Xsalogic_dual_194_ salogic_dual_025_ net148 salogic_dual_009_
+ vdd_d vss_d NR2D0LVT
Xsalogic_dual_195_ salogic_dual_dac_cycle[6] salogic_dual_026_
+ vdd_d vss_d CKND0LVT
Xsalogic_dual_196_ salogic_dual_026_ net148 salogic_dual_010_
+ vdd_d vss_d NR2D0LVT
Xsalogic_dual_197_ salogic_dual_dac_cycle[7] salogic_dual_027_
+ vdd_d vss_d CKND0LVT
Xsalogic_dual_198_ salogic_dual_027_ net148 salogic_dual_011_
+ vdd_d vss_d NR2D0LVT
Xsalogic_dual_199_ salogic_dual_dac_cycle[8] salogic_dual_028_
+ vdd_d vss_d CKND0LVT
Xsalogic_dual_200_ salogic_dual_028_ net149 salogic_dual_012_
+ vdd_d vss_d NR2D0LVT
Xsalogic_dual_201_ salogic_dual_dac_cycle[9] salogic_dual_029_
+ vdd_d vss_d CKND0LVT
Xsalogic_dual_202_ salogic_dual_029_ net149 salogic_dual_013_
+ vdd_d vss_d NR2D0LVT
Xsalogic_dual_203_ salogic_dual_dac_cycle[10] salogic_dual_030_
+ vdd_d vss_d CKND0LVT
Xsalogic_dual_204_ salogic_dual_030_ net149 salogic_dual_014_
+ vdd_d vss_d NR2D0LVT
Xsalogic_dual_205_ net150 net4 salogic_dual_031_ vdd_d vss_d
+ CKND2D0LVT
Xsalogic_dual_206_ net148 salogic_dual_032_ vdd_d vss_d
+ INVD2LVT
Xsalogic_dual_207_ salogic_dual_031_ salogic_dual_032_
+ salogic_dual_033_ vdd_d vss_d ND2D2LVT
Xinput43 dac_bstate_n[15] net43 vdd_d vss_d BUFFD2LVT
Xsalogic_dual_209_ net37 salogic_dual_035_ vdd_d vss_d CKND0LVT
Xinput42 dac_bstate_n[14] net42 vdd_d vss_d BUFFD2LVT
Xsalogic_dual_211_ salogic_dual_035_ net150 salogic_dual_037_
+ vdd_d vss_d NR2D0LVT
Xsalogic_dual_212_ salogic_dual_033_ salogic_dual_037_
+ salogic_dual_038_ vdd_d vss_d NR2D1LVT
Xinput41 dac_bstate_n[13] net41 vdd_d vss_d BUFFD2LVT
Xsalogic_dual_214_ net146 net5 salogic_dual_040_ vdd_d vss_d
+ NR2D0LVT
Xsalogic_dual_215_ salogic_dual_038_ salogic_dual_040_
+ salogic_dual_dac_ff[0].dac_state_n_ff.D vdd_d vss_d NR2D1LVT
Xsalogic_dual_216_ net150 net149 salogic_dual_041_ vdd_d
+ vss_d INR2D2LVT
Xinput40 dac_bstate_n[12] net40 vdd_d vss_d BUFFD2LVT
Xsalogic_dual_218_ salogic_dual_dac_cycle[0] salogic_dual_041_
+ salogic_dual_dac_ff[0].dac_state_n_ff.E vdd_d vss_d IND2D0LVT
Xsalogic_dual_219_ net3 net69 salogic_dual_043_ vdd_d vss_d
+ CKND2D0LVT
Xsalogic_dual_220_ salogic_dual_043_ net147 salogic_dual_044_
+ vdd_d vss_d ND2D2LVT
Xinput39 dac_bstate_n[11] net39 vdd_d vss_d BUFFD2LVT
Xsalogic_dual_222_ net53 salogic_dual_046_ vdd_d vss_d CKND0LVT
Xsalogic_dual_223_ salogic_dual_046_ net69 salogic_dual_047_
+ vdd_d vss_d NR2D0LVT
Xsalogic_dual_224_ salogic_dual_044_ salogic_dual_047_
+ salogic_dual_048_ vdd_d vss_d NR2D1LVT
Xsalogic_dual_225_ net147 net21 salogic_dual_049_ vdd_d
+ vss_d NR2D0LVT
Xsalogic_dual_226_ salogic_dual_048_ salogic_dual_049_
+ salogic_dual_dac_ff[0].dac_state_p_ff.D vdd_d vss_d NR2D1LVT
Xsalogic_dual_227_ net38 salogic_dual_050_ vdd_d vss_d CKND0LVT
Xsalogic_dual_228_ salogic_dual_050_ net150 salogic_dual_051_
+ vdd_d vss_d NR2D0LVT
Xsalogic_dual_229_ salogic_dual_033_ salogic_dual_051_
+ salogic_dual_052_ vdd_d vss_d NR2D1LVT
Xsalogic_dual_230_ net146 net6 salogic_dual_053_ vdd_d vss_d
+ NR2D0LVT
Xsalogic_dual_231_ salogic_dual_052_ salogic_dual_053_
+ salogic_dual_dac_ff[10].dac_state_n_ff.D vdd_d vss_d NR2D1LVT
Xsalogic_dual_232_ net145 salogic_dual_030_ salogic_dual_dac_ff[10].dac_state_n_ff.E
+ vdd_d vss_d CKND2D0LVT
Xsalogic_dual_233_ net54 salogic_dual_054_ vdd_d vss_d CKND0LVT
Xsalogic_dual_234_ salogic_dual_054_ net69 salogic_dual_055_
+ vdd_d vss_d NR2D0LVT
Xsalogic_dual_235_ salogic_dual_044_ salogic_dual_055_
+ salogic_dual_056_ vdd_d vss_d NR2D1LVT
Xsalogic_dual_236_ net147 net22 salogic_dual_057_ vdd_d
+ vss_d NR2D0LVT
Xsalogic_dual_237_ salogic_dual_056_ salogic_dual_057_
+ salogic_dual_dac_ff[10].dac_state_p_ff.D vdd_d vss_d NR2D1LVT
Xsalogic_dual_238_ net39 salogic_dual_058_ vdd_d vss_d CKND0LVT
Xsalogic_dual_239_ salogic_dual_058_ net150 salogic_dual_059_
+ vdd_d vss_d NR2D0LVT
Xsalogic_dual_240_ salogic_dual_033_ salogic_dual_059_
+ salogic_dual_060_ vdd_d vss_d NR2D1LVT
Xsalogic_dual_241_ net146 net7 salogic_dual_061_ vdd_d vss_d
+ NR2D0LVT
Xsalogic_dual_242_ salogic_dual_060_ salogic_dual_061_
+ salogic_dual_dac_ff[11].dac_state_n_ff.D vdd_d vss_d NR2D1LVT
Xsalogic_dual_243_ net145 salogic_dual_017_ salogic_dual_dac_ff[11].dac_state_n_ff.E
+ vdd_d vss_d CKND2D0LVT
Xsalogic_dual_244_ net55 salogic_dual_062_ vdd_d vss_d CKND0LVT
Xsalogic_dual_245_ salogic_dual_062_ net69 salogic_dual_063_
+ vdd_d vss_d NR2D0LVT
Xsalogic_dual_246_ salogic_dual_044_ salogic_dual_063_
+ salogic_dual_064_ vdd_d vss_d NR2D1LVT
Xsalogic_dual_247_ net147 net23 salogic_dual_065_ vdd_d
+ vss_d NR2D0LVT
Xsalogic_dual_248_ salogic_dual_064_ salogic_dual_065_
+ salogic_dual_dac_ff[11].dac_state_p_ff.D vdd_d vss_d NR2D1LVT
Xsalogic_dual_249_ net40 salogic_dual_066_ vdd_d vss_d CKND0LVT
Xsalogic_dual_250_ salogic_dual_066_ net150 salogic_dual_067_
+ vdd_d vss_d NR2D0LVT
Xsalogic_dual_251_ salogic_dual_033_ salogic_dual_067_
+ salogic_dual_068_ vdd_d vss_d NR2D1LVT
Xsalogic_dual_252_ net146 net8 salogic_dual_069_ vdd_d vss_d
+ NR2D0LVT
Xsalogic_dual_253_ salogic_dual_068_ salogic_dual_069_
+ salogic_dual_dac_ff[12].dac_state_n_ff.D vdd_d vss_d NR2D1LVT
Xsalogic_dual_254_ net145 salogic_dual_018_ salogic_dual_dac_ff[12].dac_state_n_ff.E
+ vdd_d vss_d CKND2D0LVT
Xsalogic_dual_255_ net56 salogic_dual_070_ vdd_d vss_d CKND0LVT
Xsalogic_dual_256_ salogic_dual_070_ net69 salogic_dual_071_
+ vdd_d vss_d NR2D0LVT
Xsalogic_dual_257_ salogic_dual_044_ salogic_dual_071_
+ salogic_dual_072_ vdd_d vss_d NR2D1LVT
Xsalogic_dual_258_ net147 net24 salogic_dual_073_ vdd_d
+ vss_d NR2D0LVT
Xsalogic_dual_259_ salogic_dual_072_ salogic_dual_073_
+ salogic_dual_dac_ff[12].dac_state_p_ff.D vdd_d vss_d NR2D1LVT
Xsalogic_dual_260_ net41 salogic_dual_074_ vdd_d vss_d CKND0LVT
Xsalogic_dual_261_ salogic_dual_074_ net150 salogic_dual_075_
+ vdd_d vss_d NR2D0LVT
Xsalogic_dual_262_ salogic_dual_033_ salogic_dual_075_
+ salogic_dual_076_ vdd_d vss_d NR2D1LVT
Xsalogic_dual_263_ net146 net9 salogic_dual_077_ vdd_d vss_d
+ NR2D0LVT
Xsalogic_dual_264_ salogic_dual_076_ salogic_dual_077_
+ salogic_dual_dac_ff[13].dac_state_n_ff.D vdd_d vss_d NR2D1LVT
Xsalogic_dual_265_ net145 salogic_dual_019_ salogic_dual_dac_ff[13].dac_state_n_ff.E
+ vdd_d vss_d CKND2D0LVT
Xsalogic_dual_266_ net57 salogic_dual_078_ vdd_d vss_d CKND0LVT
Xsalogic_dual_267_ salogic_dual_078_ net69 salogic_dual_079_
+ vdd_d vss_d NR2D0LVT
Xsalogic_dual_268_ salogic_dual_044_ salogic_dual_079_
+ salogic_dual_080_ vdd_d vss_d NR2D1LVT
Xsalogic_dual_269_ net147 net25 salogic_dual_081_ vdd_d
+ vss_d NR2D0LVT
Xsalogic_dual_270_ salogic_dual_080_ salogic_dual_081_
+ salogic_dual_dac_ff[13].dac_state_p_ff.D vdd_d vss_d NR2D1LVT
Xsalogic_dual_271_ net42 salogic_dual_082_ vdd_d vss_d CKND0LVT
Xinput38 dac_bstate_n[10] net38 vdd_d vss_d BUFFD2LVT
Xsalogic_dual_273_ salogic_dual_082_ net150 salogic_dual_084_
+ vdd_d vss_d NR2D0LVT
Xsalogic_dual_274_ salogic_dual_033_ salogic_dual_084_
+ salogic_dual_085_ vdd_d vss_d NR2D1LVT
Xinput37 dac_bstate_n[0] net37 vdd_d vss_d BUFFD2LVT
Xsalogic_dual_276_ net146 net10 salogic_dual_087_ vdd_d
+ vss_d NR2XD0LVT
Xsalogic_dual_277_ salogic_dual_085_ salogic_dual_087_
+ salogic_dual_dac_ff[14].dac_state_n_ff.D vdd_d vss_d NR2D1LVT
Xsalogic_dual_278_ net145 salogic_dual_020_ salogic_dual_dac_ff[14].dac_state_n_ff.E
+ vdd_d vss_d CKND2D0LVT
Xsalogic_dual_279_ net58 salogic_dual_088_ vdd_d vss_d CKND0LVT
Xsalogic_dual_280_ salogic_dual_088_ net69 salogic_dual_089_
+ vdd_d vss_d NR2D0LVT
Xsalogic_dual_281_ salogic_dual_044_ salogic_dual_089_
+ salogic_dual_090_ vdd_d vss_d NR2D1LVT
Xsalogic_dual_282_ net147 net26 salogic_dual_091_ vdd_d
+ vss_d NR2XD0LVT
Xsalogic_dual_283_ salogic_dual_090_ salogic_dual_091_
+ salogic_dual_dac_ff[14].dac_state_p_ff.D vdd_d vss_d NR2D1LVT
Xsalogic_dual_284_ net43 salogic_dual_092_ vdd_d vss_d CKND0LVT
Xsalogic_dual_285_ salogic_dual_092_ net150 salogic_dual_093_
+ vdd_d vss_d NR2D0LVT
Xsalogic_dual_286_ salogic_dual_033_ salogic_dual_093_
+ salogic_dual_094_ vdd_d vss_d NR2D1LVT
Xsalogic_dual_287_ net146 net11 salogic_dual_095_ vdd_d
+ vss_d NR2XD0LVT
Xsalogic_dual_288_ salogic_dual_094_ salogic_dual_095_
+ salogic_dual_dac_ff[15].dac_state_n_ff.D vdd_d vss_d NR2D1LVT
Xsalogic_dual_289_ net145 salogic_dual_021_ salogic_dual_dac_ff[15].dac_state_n_ff.E
+ vdd_d vss_d CKND2D0LVT
Xsalogic_dual_290_ net59 salogic_dual_096_ vdd_d vss_d CKND0LVT
Xsalogic_dual_291_ salogic_dual_096_ net69 salogic_dual_097_
+ vdd_d vss_d NR2D0LVT
Xsalogic_dual_292_ salogic_dual_044_ salogic_dual_097_