
simulator lang=spectre
//*** Spectre cmdm probe for differential stability analysis ***
//*** The subckt name is 'diffstbprobel_gnd'
// Use this subckt as follows:
// Istbprobe (IN1 IN2 OUT1 OUT2 L_GND) diffstbprobel_gnd
// 1. measure differential mode stability
//    stb stb start=10 stop=500M dec=40  probe=Istbprobe.IPRB_DM
// 2. measure common mode stability
//    stb stb start=10 stop=500M dec=40  probe=Istbprobe.IPRB_CM


//pragma protect begin_protected
//pragma protect data_method   = RC5
//pragma protect data_keyowner = Cadence Design Systems.
//pragma protect data_keyname  = CDS_KEY
//pragma protect data_keyversion = 3
//pragma protect data_block
iVj/sS71ktzXIzZCkEQ3LoFjZnEyoGYpgOA+04PrUe9tl8F08uqa/v1IlLpXMdT7
MPRJOQLt7tiSvM7HYi/hljRjFR4BVDjPAJpT+AjfrsGfi7j185HFoBw9RlzxITE1
YYawBYCNwXv8KBBCX+rtMNSL/nrJ5f7e3ZVyMlve13FrS/UJFnlOLnXUj2UuSXok
RooYqq1uAPWy/oPv0ZUxHK9lnJDRCBZ4m7OzuoEmNMqm5xSLpBNPkOm/0qDo6sd4
3bp7rvPrME9sHGTq4jcn6gkMxEAScERwFFRpZbBFEjXocRTwiYDJwAH8PXO4jsA6
rkpBxIokmZp1gYqnPDH2/83cod+Z5AxTDANLM0jfTtF9XYDPiaWKPjP9ZvxijAim
3A1XQhLhytQyj7s3RKJeaPM2oih397ic+J1JjRsqWgJm7kKcqEyQUHRmbJkADsCI
BG8N7Emk/XfCGoNj27nzKarzRyRW+1u4KqlLG5ZjvgiMOk+WvqKfoB6kYNBrDQz3
3j5FqcN1dHEIKlji0eyrcSQdY/bzocAhWbGpGD1D2BiPNdiZ8Ly/DlOEVNUT/tic
//pragma protect end_protected
  IPRB_DM (a c) iprobe
  IPRB_CM (b d) iprobe
//pragma protect begin_protected
//pragma protect data_method   = RC5
//pragma protect data_keyowner = Cadence Design Systems.
//pragma protect data_keyname  = CDS_KEY
//pragma protect data_keyversion = 3
//pragma protect data_block
1FRvnUnJOYH2yOP5YDbIkmksFPojboZDieUJAbM3RMALaRBbLNC1c84F2GSMSyWs
D11QuMvp5XLmFX+jU7mNlmhE/Cmakhqp2Y+iN94anb6MMQOxlV/GfQTYeZTE946K
tjL8g5FLaWdvNblhNoJ7QaOwvwnl2CB7a4qlcm/6peOBmNcKZ6wbTzBx672dRVvR
//pragma protect end_protected
