.subckt TG PPD TG FD SUB W_=2u L_=0.6u  Vdep=1 Ctgfd=0.1f barrier=0.3
*20231227vs created LVS view
*20240130ba 
*20240415ViS  
*20240522ViS  
XTG FD tg PPD sub LDDN w=W_ l=L_ $[ne3txf]
.ends
